2019-12-04 17:25:11,804  INFO Gbl:63 JVM: 11; Oracle Corporation; mixed mode; 64-bit
2019-12-04 17:25:11,804  INFO Gbl:67 OS: Windows 10; 10.0; amd64
2019-12-04 17:25:11,804  INFO Gbl:70 CPU cores: 8
2019-12-04 17:25:11,805  INFO Gbl:71 max. Memory: 1024.0MB (1073741824B)
2019-12-04 17:25:11,805  INFO Gbl:109 MATSim-Build: r92f5a963d96c1378d104c07359ace3469f91ad77 (2019-04-10 11:10:17)
2019-12-04 17:25:11,807  INFO ControlerListenerManagerImpl:107 calling notifyStartup on org.matsim.counts.CountsControlerListener
2019-12-04 17:25:11,808  INFO ControlerListenerManagerImpl:107 calling notifyStartup on org.matsim.analysis.ModeStatsControlerListener
2019-12-04 17:25:11,808 DEBUG NetworkRoutingProvider:75 requesting network routing module with routingMode=car;	mode=car
2019-12-04 17:25:11,809  INFO ControlerListenerManagerImpl:107 calling notifyStartup on org.matsim.analysis.ScoreStatsControlerListener
2019-12-04 17:25:11,809  INFO ControlerListenerManagerImpl:110 all ControlerStartupListeners called.
2019-12-04 17:25:11,810  INFO ControlerUtils:58 config dump before iterations start
2019-12-04 17:25:11,822  INFO ControlerUtils:62 

<?xml version="1.0" encoding="UTF-8"?>
<!DOCTYPE config SYSTEM "http://www.matsim.org/files/dtd/config_v2.dtd">
<config>
	<module name="JDEQSim" >
		<param name="carSize" value="7.5" />
		<param name="endTime" value="undefined" />
		<param name="flowCapacityFactor" value="1.0" />
		<param name="gapTravelSpeed" value="15.0" />
		<param name="minimumInFlowCapacity" value="1800.0" />
		<param name="squeezeTime" value="1800.0" />
		<param name="storageCapacityFactor" value="1.0" />
	</module>
	<module name="TimeAllocationMutator" >
		<!-- Default:true; Defines whether time mutation changes an activity's duration. -->
		<param name="mutationAffectsDuration" value="true" />
		<!-- Default:1800.0; Defines how many seconds a time mutation can maximally shift a time. -->
		<param name="mutationRange" value="1800.0" />
		<!-- false; Use individual settings for each subpopulation. If enabled but no settings are found, regular settings are uses as fallback. -->
		<param name="useIndividualSettingsForSubpopulations" value="false" />
	</module>
	<module name="changeMode" >
		<!-- Defines whether car availability is considered be considered or not. An agent has no car only if it has no license, or never access to a car. Default: true -->
		<param name="ignoreCarAvailability" value="true" />
		<!-- Defines the mode switch behavior. Possible values [fromAllModesToSpecifiedModes, fromSpecifiedModesToSpecifiedModes] Default: fromSpecifiedModesToSpecifiedModes. -->
		<param name="modeSwitchBehavior" value="fromSpecifiedModesToSpecifiedModes" />
		<!-- Defines all the modes available, including chain-based modes, seperated by commas -->
		<param name="modes" value="car,pt" />
	</module>
	<module name="controler" >
		<!-- Sets whether graphs showing some analyses should automatically be generated during the simulation. The generation of graphs usually takes a small amount of time that does not have any weight in big simulations, but add a significant overhead in smaller runs or in test cases where the graphical output is not even requested. -->
		<param name="createGraphs" value="true" />
		<!-- true if at the end of a run, plans, network, config etc should be dumped to a file -->
		<param name="dumpDataAtEnd" value="true" />
		<!-- Default=false. If enabled, the router takes travel times needed for turning moves into account. Cannot be used if the (Fast)AStarLandmarks routing or TravelTimeCalculator.separateModes is enabled. -->
		<param name="enableLinkToLinkRouting" value="false" />
		<!-- Default=xml; Specifies the file format for writing events. Currently supported: xml.
		Multiple values can be specified separated by commas (','). -->
		<param name="eventsFileFormat" value="xml" />
		<!-- Default=0;  -->
		<param name="firstIteration" value="0" />
		<!-- Default=1000;  -->
		<param name="lastIteration" value="10" />
		<!-- Defines which mobility simulation will be used. Currently supported: qsim JDEQSim 
		Depending on the chosen mobsim, you'll have to add additional config modules to configure the corresponding mobsim.
		For 'qsim', add a module 'qsim' to the config. -->
		<param name="mobsim" value="qsim" />
		<param name="outputDirectory" value="./output" />
		<!-- Possible values: failIfDirectoryExists, overwriteExistingFiles, deleteDirectoryIfExists -->
		<param name="overwriteFiles" value="failIfDirectoryExists" />
		<!-- The type of routing (least cost path) algorithm used, may have the values: Dijkstra, FastDijkstra, AStarLandmarks or FastAStarLandmarks -->
		<param name="routingAlgorithmType" value="AStarLandmarks" />
		<!-- An identifier for the current run which is used as prefix for output files and mentioned in output xml files etc. -->
		<param name="runId" value="null" />
		<!-- Comma-separated list of visualizer output file formats. `transims', `googleearth', and `otfvis'. -->
		<param name="snapshotFormat" value="" />
		<!-- iterationNumber % writeEventsInterval == 0 defines in which iterations events are written to a file. `0' disables events writing completely. -->
		<param name="writeEventsInterval" value="10" />
		<!-- iterationNumber % writePlansInterval == 0 defines (hopefully) in which iterations plans are written to a file. `0' disables plans writing completely.  Some plans in early iterations are always written -->
		<param name="writePlansInterval" value="10" />
		<!-- iterationNumber % writeSnapshotsInterval == 0 defines in which iterations snapshots are written to a file. `0' disables snapshots writing completely -->
		<param name="writeSnapshotsInterval" value="1" />
	</module>
	<module name="counts" >
		<!-- Transport modes that will be respected for the counts comparison. 'car' is default, which includes also bussed from the pt simulation module. Use this parameter in combination with 'filterModes' = true! -->
		<param name="analyzedModes" value="car" />
		<!-- Specifies over how many iterations the link volumes should be averaged that are used for the counts comparison. Use 1 or 0 to only use the link volumes of a single iteration. This values cannot be larger than the value specified for writeCountsInterval -->
		<param name="averageCountsOverIterations" value="5" />
		<!-- factor by which to re-scale the simulated values.  necessary when simulation runs with something different from 100%.  needs to be adapted manually -->
		<param name="countsScaleFactor" value="1.0" />
		<!-- distance to distanceFilterCenterNode to include counting stations. The unit of distance is the Euclidean distance implied by the coordinate system -->
		<param name="distanceFilter" value="null" />
		<!-- node id for center node of distance filter -->
		<param name="distanceFilterCenterNode" value="null" />
		<!-- If true, link counts from legs performed on modes not included in the 'analyzedModes' parameter are ignored. -->
		<param name="filterModes" value="false" />
		<!-- The Coordinates Reference System in which the coordinates are expressed in the input file. At import, the coordinates will be converted to the coordinate system defined in "global", and willbe converted back at export. If not specified, no conversion happens. -->
		<param name="inputCRS" value="null" />
		<!-- input file name to counts package -->
		<param name="inputCountsFile" value="null" />
		<!-- possible values: `html', `kml', `txt', `all' -->
		<param name="outputformat" value="txt" />
		<!-- Specifies how often the counts comparison should be calculated and written. -->
		<param name="writeCountsInterval" value="10" />
	</module>
	<module name="facilities" >
		<!-- This defines how facilities should be created. Possible values: none fromFile setInScenario onePerActivityLinkInPlansFile onePerActivityLocationInPlansFile  -->
		<param name="facilitiesSource" value="none" />
		<!-- A prefix to be used for auto-generated IDs. -->
		<param name="idPrefix" value="autogen_" />
		<!-- The Coordinates Reference System in which the coordinates are expressed in the input file. At import, the coordinates will be converted to the coordinate system defined in "global", and willbe converted back at export. If not specified, no conversion happens. -->
		<param name="inputCRS" value="null" />
		<param name="inputFacilitiesFile" value="null" />
		<param name="inputFacilityAttributesFile" value="null" />
	</module>
	<module name="global" >
		<param name="coordinateSystem" value="Atlantis" />
		<param name="insistingOnDeprecatedConfigVersion" value="true" />
		<!-- "global" number of threads.  This number is used, e.g., for replanning, but NOT in the mobsim.  This can typically be set to as many cores as you have available, or possibly even slightly more. -->
		<param name="numberOfThreads" value="2" />
		<param name="randomSeed" value="4711" />
	</module>
	<module name="households" >
		<param name="inputFile" value="null" />
		<param name="inputHouseholdAttributesFile" value="null" />
	</module>
	<module name="linkStats" >
		<!-- Specifies over how many iterations the link volumes should be averaged that are used for the link statistics. Use 1 or 0 to only use the link volumes of a single iteration. This values cannot be larger than the value specified for writeLinkStatsInterval -->
		<param name="averageLinkStatsOverIterations" value="5" />
		<!-- Specifies how often the link stats should be calculated and written. Use 0 to disable the generation of link stats. -->
		<param name="writeLinkStatsInterval" value="10" />
	</module>
	<module name="network" >
		<!-- The Coordinates Reference System in which the coordinates are expressed in the input file. At import, the coordinates will be converted to the coordinate system defined in "global", and willbe converted back at export. If not specified, no conversion happens. -->
		<param name="inputCRS" value="null" />
		<param name="inputChangeEventsFile" value="null" />
		<param name="inputNetworkFile" value="network.xml" />
		<param name="laneDefinitionsFile" value="null" />
		<param name="timeVariantNetwork" value="false" />
	</module>
	<module name="parallelEventHandling" >
		<!-- Estimated number of events during mobsim run. An optional optimization hint for the framework. -->
		<param name="estimatedNumberOfEvents" value="null" />
		<!-- Number of threads for parallel events handler. _null_ means the framework decides by itself. 0 is currently not possible. -->
		<param name="numberOfThreads" value="null" />
		<!-- If enabled, each event handler is assigned to its own thread. Note that enabling this feature disabled the numberOfThreads option! This feature is still experimental! -->
		<param name="oneThreadPerHandler" value="false" />
		<!-- If enabled, it is ensured that all events that are created during a time step of the mobility simulation are processed before the next time step is simulated. E.g. neccessary when within-day replanning is used. -->
		<param name="synchronizeOnSimSteps" value="true" />
	</module>
	<module name="planCalcScore" >
		<!-- logit model scale parameter. default: 1.  Has name and default value for historical reasons (see Bryan Raney's phd thesis). -->
		<param name="BrainExpBeta" value="2.0" />
		<param name="PathSizeLogitBeta" value="1.0" />
		<!-- fraction of iterations at which MSA score averaging is started. The matsim theory department suggests to use this together with switching off choice set innovation (where a similar switch exists), but it has not been tested yet. -->
		<param name="fractionOfIterationsToStartScoreMSA" value="null" />
		<!-- new_score = (1-learningRate)*old_score + learningRate * score_from_mobsim.  learning rates close to zero emulate score averaging, but slow down initial convergence -->
		<param name="learningRate" value="1.0" />
		<!-- There used to be a plateau between duration=0 and duration=zeroUtilityDuration. This caused durations to evolve to zero once they were below zeroUtilityDuration, causing problems.  Only use this switch if you need to be backwards compatible with some old results.  (changed nov'13) -->
		<param name="usingOldScoringBelowZeroUtilityDuration" value="false" />
		<!-- write a plans file in each iteration directory which contains what each agent actually did, and the score it received. -->
		<param name="writeExperiencedPlans" value="false" />
		<parameterset type="scoringParameters" >
			<param name="earlyDeparture" value="-0.0" />
			<param name="lateArrival" value="-18.0" />
			<param name="marginalUtilityOfMoney" value="1.0" />
			<param name="performing" value="6.0" />
			<param name="subpopulation" value="null" />
			<param name="utilityOfLineSwitch" value="-1.0" />
			<param name="waiting" value="-0.0" />
			<param name="waitingPt" value="-6.0" />
			<parameterset type="activityParams" >
				<param name="activityType" value="dummy" />
				<param name="closingTime" value="undefined" />
				<param name="earliestEndTime" value="undefined" />
				<param name="latestStartTime" value="undefined" />
				<param name="minimalDuration" value="undefined" />
				<param name="openingTime" value="undefined" />
				<param name="priority" value="1.0" />
				<param name="scoringThisActivityAtAll" value="true" />
				<!-- typical duration of activity.  needs to be defined and non-zero.  in sec. -->
				<param name="typicalDuration" value="02:00:00" />
				<!-- method to compute score at typical duration.  Options: | uniform | relative | Use uniform for backwards compatibility (all activities same score; higher proba to drop long acts). -->
				<param name="typicalDurationScoreComputation" value="relative" />
			</parameterset>
			<parameterset type="activityParams" >
				<param name="activityType" value="car interaction" />
				<param name="closingTime" value="undefined" />
				<param name="earliestEndTime" value="undefined" />
				<param name="latestStartTime" value="undefined" />
				<param name="minimalDuration" value="undefined" />
				<param name="openingTime" value="undefined" />
				<param name="priority" value="1.0" />
				<param name="scoringThisActivityAtAll" value="false" />
				<param name="typicalDuration" value="undefined" />
				<param name="typicalDurationScoreComputation" value="relative" />
			</parameterset>
			<parameterset type="activityParams" >
				<param name="activityType" value="pt interaction" />
				<param name="closingTime" value="undefined" />
				<param name="earliestEndTime" value="undefined" />
				<param name="latestStartTime" value="undefined" />
				<param name="minimalDuration" value="undefined" />
				<param name="openingTime" value="undefined" />
				<param name="priority" value="1.0" />
				<param name="scoringThisActivityAtAll" value="false" />
				<param name="typicalDuration" value="undefined" />
				<param name="typicalDurationScoreComputation" value="relative" />
			</parameterset>
			<parameterset type="activityParams" >
				<param name="activityType" value="bike interaction" />
				<param name="closingTime" value="undefined" />
				<param name="earliestEndTime" value="undefined" />
				<param name="latestStartTime" value="undefined" />
				<param name="minimalDuration" value="undefined" />
				<param name="openingTime" value="undefined" />
				<param name="priority" value="1.0" />
				<param name="scoringThisActivityAtAll" value="false" />
				<param name="typicalDuration" value="undefined" />
				<param name="typicalDurationScoreComputation" value="relative" />
			</parameterset>
			<parameterset type="activityParams" >
				<param name="activityType" value="other interaction" />
				<param name="closingTime" value="undefined" />
				<param name="earliestEndTime" value="undefined" />
				<param name="latestStartTime" value="undefined" />
				<param name="minimalDuration" value="undefined" />
				<param name="openingTime" value="undefined" />
				<param name="priority" value="1.0" />
				<param name="scoringThisActivityAtAll" value="false" />
				<param name="typicalDuration" value="undefined" />
				<param name="typicalDurationScoreComputation" value="relative" />
			</parameterset>
			<parameterset type="activityParams" >
				<param name="activityType" value="walk interaction" />
				<param name="closingTime" value="undefined" />
				<param name="earliestEndTime" value="undefined" />
				<param name="latestStartTime" value="undefined" />
				<param name="minimalDuration" value="undefined" />
				<param name="openingTime" value="undefined" />
				<param name="priority" value="1.0" />
				<param name="scoringThisActivityAtAll" value="false" />
				<param name="typicalDuration" value="undefined" />
				<param name="typicalDurationScoreComputation" value="relative" />
			</parameterset>
			<parameterset type="activityParams" >
				<param name="activityType" value="h" />
				<param name="closingTime" value="undefined" />
				<param name="earliestEndTime" value="undefined" />
				<param name="latestStartTime" value="undefined" />
				<param name="minimalDuration" value="08:00:00" />
				<param name="openingTime" value="undefined" />
				<param name="priority" value="1.0" />
				<param name="scoringThisActivityAtAll" value="true" />
				<param name="typicalDuration" value="12:00:00" />
				<param name="typicalDurationScoreComputation" value="relative" />
			</parameterset>
			<parameterset type="activityParams" >
				<param name="activityType" value="w" />
				<param name="closingTime" value="18:00:00" />
				<param name="earliestEndTime" value="undefined" />
				<param name="latestStartTime" value="09:00:00" />
				<param name="minimalDuration" value="06:00:00" />
				<param name="openingTime" value="07:00:00" />
				<param name="priority" value="1.0" />
				<param name="scoringThisActivityAtAll" value="true" />
				<param name="typicalDuration" value="08:00:00" />
				<param name="typicalDurationScoreComputation" value="relative" />
			</parameterset>
			<parameterset type="modeParams" >
				<!-- [utils] alternative-specific constant.  Normally per trip, but that is probably buggy for multi-leg trips. -->
				<param name="constant" value="0.0" />
				<!-- [money] daily monetary constant. default=0 to be backwards compatible -->
				<param name="dailyMonetaryConstant" value="0.0" />
				<!-- [utils] daily utility constant. default=0 to be backwards compatible -->
				<param name="dailyUtilityConstant" value="0.0" />
				<!-- [utils/m] utility of traveling (e.g. walking or driving) per m, normally negative.  this is on top of the time (dis)utility. -->
				<param name="marginalUtilityOfDistance_util_m" value="0.0" />
				<!-- [utils/hr] additional marginal utility of traveling.  normally negative.  this comes on top of the opportunity cost of time -->
				<param name="marginalUtilityOfTraveling_util_hr" value="-6.0" />
				<param name="mode" value="car" />
				<!-- [unit_of_money/m] conversion of distance into money. Normally negative. -->
				<param name="monetaryDistanceRate" value="0.0" />
			</parameterset>
			<parameterset type="modeParams" >
				<param name="constant" value="0.0" />
				<param name="dailyMonetaryConstant" value="0.0" />
				<param name="dailyUtilityConstant" value="0.0" />
				<param name="marginalUtilityOfDistance_util_m" value="0.0" />
				<param name="marginalUtilityOfTraveling_util_hr" value="-6.0" />
				<param name="mode" value="pt" />
				<param name="monetaryDistanceRate" value="0.0" />
			</parameterset>
			<parameterset type="modeParams" >
				<param name="constant" value="0.0" />
				<param name="dailyMonetaryConstant" value="0.0" />
				<param name="dailyUtilityConstant" value="0.0" />
				<param name="marginalUtilityOfDistance_util_m" value="0.0" />
				<param name="marginalUtilityOfTraveling_util_hr" value="-6.0" />
				<param name="mode" value="walk" />
				<param name="monetaryDistanceRate" value="0.0" />
			</parameterset>
			<parameterset type="modeParams" >
				<param name="constant" value="0.0" />
				<param name="dailyMonetaryConstant" value="0.0" />
				<param name="dailyUtilityConstant" value="0.0" />
				<param name="marginalUtilityOfDistance_util_m" value="0.0" />
				<param name="marginalUtilityOfTraveling_util_hr" value="-6.0" />
				<param name="mode" value="bike" />
				<param name="monetaryDistanceRate" value="0.0" />
			</parameterset>
			<parameterset type="modeParams" >
				<param name="constant" value="0.0" />
				<param name="dailyMonetaryConstant" value="0.0" />
				<param name="dailyUtilityConstant" value="0.0" />
				<param name="marginalUtilityOfDistance_util_m" value="0.0" />
				<param name="marginalUtilityOfTraveling_util_hr" value="-6.0" />
				<param name="mode" value="ride" />
				<param name="monetaryDistanceRate" value="0.0" />
			</parameterset>
			<parameterset type="modeParams" >
				<param name="constant" value="0.0" />
				<param name="dailyMonetaryConstant" value="0.0" />
				<param name="dailyUtilityConstant" value="0.0" />
				<param name="marginalUtilityOfDistance_util_m" value="0.0" />
				<param name="marginalUtilityOfTraveling_util_hr" value="-6.0" />
				<param name="mode" value="other" />
				<param name="monetaryDistanceRate" value="0.0" />
			</parameterset>
		</parameterset>
	</module>
	<module name="plans" >
		<!-- String: minOfDurationAndEndTime tryEndTimeThenDuration endTimeOnly. Anything besides minOfDurationAndEndTime will internally use a different (simpler) version of the TimeAllocationMutator. -->
		<param name="activityDurationInterpretation" value="tryEndTimeThenDuration" />
		<!-- The Coordinates Reference System in which the coordinates are expressed in the input file. At import, the coordinates will be converted to the coordinate system defined in "global", and willbe converted back at export. If not specified, no conversion happens. -->
		<param name="inputCRS" value="null" />
		<param name="inputPersonAttributesFile" value="null" />
		<param name="inputPlansFile" value="plans100.xml" />
		<!-- Defines how routes are stored in memory. Currently supported: LinkNetworkRoute, CompressedNetworkRoute. -->
		<param name="networkRouteType" value="LinkNetworkRoute" />
		<!-- (not tested) will remove plan attributes that are presumably not used, such as activityStartTime. default=false. Use with Caution! -->
		<param name="removingUnnecessaryPlanAttributes" value="false" />
		<!-- Name of the (Object)Attribute defining the subpopulation to which pertains a Person (as freight, through traffic, etc.). The attribute must be of String type.  Change away from default only in desperate situations. -->
		<param name="subpopulationAttributeName" value="subpopulation" />
	</module>
	<module name="planscalcroute" >
		<!-- All the modes for which the router is supposed to generate network routes (like car) -->
		<param name="networkModes" value="car" />
		<parameterset type="teleportedModeParameters" >
			<param name="beelineDistanceFactor" value="1.3" />
			<param name="mode" value="bike" />
			<!-- Free-speed factor for a teleported mode. Travel time = teleportedModeFreespeedFactor * <freespeed car travel time>. Insert a line like this for every such mode. Please do not set teleportedModeFreespeedFactor as well as teleportedModeSpeed for the same mode, but if you do, +teleportedModeFreespeedFactor wins over teleportedModeSpeed. -->
			<param name="teleportedModeFreespeedFactor" value="null" />
			<!-- Speed for a teleported mode. Travel time = (<beeline distance> * beelineDistanceFactor) / teleportedModeSpeed. Insert a line like this for every such mode. -->
			<param name="teleportedModeSpeed" value="4.166666666666667" />
		</parameterset>
		<parameterset type="teleportedModeParameters" >
			<param name="beelineDistanceFactor" value="1.3" />
			<param name="mode" value="walk" />
			<param name="teleportedModeFreespeedFactor" value="null" />
			<param name="teleportedModeSpeed" value="0.8333333333333333" />
		</parameterset>
		<parameterset type="teleportedModeParameters" >
			<param name="beelineDistanceFactor" value="1.3" />
			<param name="mode" value="access_walk" />
			<param name="teleportedModeFreespeedFactor" value="null" />
			<param name="teleportedModeSpeed" value="0.8333333333333333" />
		</parameterset>
		<parameterset type="teleportedModeParameters" >
			<param name="beelineDistanceFactor" value="1.3" />
			<param name="mode" value="egress_walk" />
			<param name="teleportedModeFreespeedFactor" value="null" />
			<param name="teleportedModeSpeed" value="0.8333333333333333" />
		</parameterset>
		<parameterset type="teleportedModeParameters" >
			<param name="beelineDistanceFactor" value="1.3" />
			<param name="mode" value="undefined" />
			<param name="teleportedModeFreespeedFactor" value="null" />
			<param name="teleportedModeSpeed" value="13.88888888888889" />
		</parameterset>
		<parameterset type="teleportedModeParameters" >
			<param name="beelineDistanceFactor" value="1.3" />
			<param name="mode" value="ride" />
			<param name="teleportedModeFreespeedFactor" value="1.0" />
			<param name="teleportedModeSpeed" value="null" />
		</parameterset>
		<parameterset type="teleportedModeParameters" >
			<param name="beelineDistanceFactor" value="1.3" />
			<param name="mode" value="pt" />
			<param name="teleportedModeFreespeedFactor" value="2.0" />
			<param name="teleportedModeSpeed" value="null" />
		</parameterset>
	</module>
	<module name="ptCounts" >
		<!-- factor by which to re-scale the simulated values.  necessary when simulation runs with something different from 100%.  needs to be adapted manually -->
		<param name="countsScaleFactor" value="1.0" />
		<!-- distance to distanceFilterCenterNode to include counting stations. The unit of distance is the Euclidean distance implied by the coordinate system -->
		<param name="distanceFilter" value="null" />
		<!-- node id for center node of distance filter -->
		<param name="distanceFilterCenterNode" value="null" />
		<!-- input file containing the alighting (getting off) counts for pt -->
		<param name="inputAlightCountsFile" value="null" />
		<!-- input file containing the boarding (getting on) counts for pt -->
		<param name="inputBoardCountsFile" value="null" />
		<!-- input file containing the occupancy counts for pt -->
		<param name="inputOccupancyCountsFile" value="null" />
		<!-- possible values: `html', `kml', `txt', `all' -->
		<param name="outputformat" value="null" />
		<!-- every how many iterations (starting with 0) counts comparisons are generated -->
		<param name="ptCountsInterval" value="10" />
	</module>
	<module name="qsim" >
		<param name="endTime" value="00:00:00" />
		<param name="flowCapacityFactor" value="1.0" />
		<!-- decides if waiting vehicles enter the network after or before the already driving vehicles were moved. Default: false -->
		<param name="insertingWaitingVehiclesBeforeDrivingVehicles" value="true" />
		<!-- If link dynamics is set as SeepageQ, set to false if all seep modes should perform seepage. Default is true (better option). -->
		<param name="isRestrictingSeepage" value="true" />
		<!-- If link dynamics is set as SeepageQ, set to true if seep mode do not consumes any space on the link. Default is false. -->
		<param name="isSeepModeStorageFree" value="false" />
		<!-- default: FIFO; options: FIFO PassingQ SeepageQ -->
		<param name="linkDynamics" value="FIFO" />
		<!-- The (initial) width of the links of the network. Use positive floating point values. This is used only for visualisation. -->
		<param name="linkWidth" value="30.0" />
		<!-- [comma-separated list] Defines which modes are congested modes. Technically, these are the modes that the departure handler of the netsimengine handles.  Effective cell size, effective lane width, flow capacity factor, and storage capacity factor need to be set with diligence.  Need to be vehicular modes to make sense. -->
		<param name="mainMode" value="car" />
		<!-- Shortens a link in the visualization, i.e. its start and end point are moved into towards the center. Does not affect traffic flow.  -->
		<param name="nodeOffset" value="0.0" />
		<!-- Number of threads used for the QSim.  Note that this setting is independent from the "global" threads setting.  In contrast to earlier versions, the non-parallel special version is no longer there. -->
		<param name="numberOfThreads" value="1" />
		<!-- Boolean. `true': stuck vehicles are removed, aborting the plan; `false': stuck vehicles are forced into the next link. `false' is probably the better choice. -->
		<param name="removeStuckVehicles" value="false" />
		<!-- If link dynamics is set as SeepageQ, set a seep mode. Default is bike. -->
		<param name="seepMode" value="bike" />
		<!-- Possible values: minOfEndtimeAndMobsimFinished, onlyUseEndtime -->
		<param name="simEndtimeInterpretation" value="null" />
		<!-- Options: maxOfStarttimeAndEarliestActivityEnd onlyUseStarttime  -->
		<param name="simStarttimeInterpretation" value="maxOfStarttimeAndEarliestActivityEnd" />
		<!-- snapshotStyle. One of: equiDist queue withHoles withHolesAndShowHoles kinematicWaves  -->
		<param name="snapshotStyle" value="equiDist" />
		<param name="snapshotperiod" value="00:00:00" />
		<param name="startTime" value="00:00:00" />
		<param name="storageCapacityFactor" value="1.0" />
		<!-- time in seconds.  Time after which the frontmost vehicle on a link is called `stuck' if it does not move. -->
		<param name="stuckTime" value="10.0" />
		<param name="timeStepSize" value="00:00:01" />
		<!-- options: queue withHoles kinematicWaves  -->
		<param name="trafficDynamics" value="queue" />
		<!-- Set this parameter to true if lanes should be used, false if not. -->
		<param name="useLanes" value="false" />
		<!-- If a route does not reference a vehicle, agents will use the vehicle with the same id as their own. -->
		<param name="usePersonIdForMissingVehicleId" value="true" />
		<!-- If false, the qsim accumulates fractional flows up to one flow unit in every time step.  If true, flows are updated only if an agent wants to enter the link or an agent is added to buffer. Default is true. -->
		<param name="usingFastCapacityUpdate" value="true" />
		<!-- if the qsim should use as many runners as there are threads (Christoph's dissertation version) or more of them, together with a thread pool (seems to be faster in some situations, but is not tested). -->
		<param name="usingThreadpool" value="true" />
		<!-- Defines what happens if an agent wants to depart, but the specified vehicle is not available. One of: teleport wait exception  -->
		<param name="vehicleBehavior" value="teleport" />
		<!-- If vehicles should all be the same default vehicle, or come from the vehicles file, or something else.  Possible values:  defaultVehicle modeVehicleTypesFromVehiclesData fromVehiclesData -->
		<param name="vehiclesSource" value="defaultVehicle" />
	</module>
	<module name="strategy" >
		<!-- the external executable will be called with a config file as argument.  This is the pathname to a possible skeleton config, to which additional information will be added.  Can be null. -->
		<param name="ExternalExeConfigTemplate" value="null" />
		<!-- time out value (in seconds) after which matsim will consider the external strategy as failed -->
		<param name="ExternalExeTimeOut" value="3600" />
		<!-- root directory for temporary files generated by the external executable. Provided as a service; I don't think this is used by MATSim. -->
		<param name="ExternalExeTmpFileRootDir" value="null" />
		<!-- fraction of iterations where innovative strategies are switched off.  Something like 0.8 should be good.  E.g. if you run from iteration 400 to iteration 500, innovation is switched off at iteration 480 -->
		<param name="fractionOfIterationsToDisableInnovation" value="Infinity" />
		<!-- maximum number of plans per agent.  ``0'' means ``infinity''.  Currently (2010), ``5'' is a good number -->
		<param name="maxAgentPlanMemorySize" value="5" />
		<!-- strategyName of PlanSelector for plans removal.  Possible defaults: WorstPlanSelector SelectRandom SelectExpBetaForRemoval ChangeExpBetaForRemoval PathSizeLogitSelectorForRemoval . The current default, WorstPlanSelector is not a good choice from a discrete choice theoretical perspective. Alternatives, however, have not been systematically tested. kai, feb'12 -->
		<param name="planSelectorForRemoval" value="WorstPlanSelector" />
		<parameterset type="strategysettings" >
			<!-- iteration after which strategy will be disabled.  most useful for ``innovative'' strategies (new routes, new times, ...). Normally, better use fractionOfIterationsToDisableInnovation -->
			<param name="disableAfterIteration" value="-1" />
			<!-- path to external executable (if applicable) -->
			<param name="executionPath" value="null" />
			<!-- strategyName of strategy.  Possible default names: SelectRandomBestScoreKeepLastSelectedChangeExpBetaSelectExpBetaSelectPathSizeLogit (selectors), ReRouteTimeAllocationMutatorTimeAllocationMutator_ReRouteChangeSingleTripModeChangeTripModeSubtourModeChoice (innovative strategies). -->
			<param name="strategyName" value="BestScore" />
			<!-- subpopulation to which the strategy applies. "null" refers to the default population, that is, the set of persons for which no explicit subpopulation is defined (ie no subpopulation attribute) -->
			<param name="subpopulation" value="null" />
			<!-- weight of a strategy: for each agent, a strategy will be selected with a probability proportional to its weight -->
			<param name="weight" value="0.9" />
		</parameterset>
		<parameterset type="strategysettings" >
			<param name="disableAfterIteration" value="-1" />
			<param name="executionPath" value="null" />
			<param name="strategyName" value="ReRoute" />
			<param name="subpopulation" value="null" />
			<param name="weight" value="0.1" />
		</parameterset>
	</module>
	<module name="subtourModeChoice" >
		<!-- Only for backwards compatibility.  Defines if only trips from modes list should change mode, or all trips.  Options: fromAllModesToSpecifiedModes fromSpecifiedModesToSpecifiedModes  -->
		<param name="behavior" value="fromSpecifiedModesToSpecifiedModes" />
		<!-- Defines the chain-based modes, seperated by commas -->
		<param name="chainBasedModes" value="car,bike" />
		<!-- Defines whether car availability must be considered or not. A agent has no car only if it has no license, or never access to a car -->
		<param name="considerCarAvailability" value="false" />
		<!-- Defines all the modes available, including chain-based modes, seperated by commas -->
		<param name="modes" value="car,pt,bike,walk" />
	</module>
	<module name="transit" >
		<!-- The Coordinates Reference System in which the coordinates are expressed in the input file. At import, the coordinates will be converted to the coordinate system defined in "global", and willbe converted back at export. If not specified, no conversion happens. -->
		<param name="inputScheduleCRS" value="null" />
		<!-- Optional input file containing additional attributes for transit lines, stored as ObjectAttributes. -->
		<param name="transitLinesAttributesFile" value="null" />
		<!-- Comma-separated list of transportation modes that are handled as transit. Defaults to 'pt'. -->
		<param name="transitModes" value="pt" />
		<!-- Input file containing the transit schedule to be simulated. -->
		<param name="transitScheduleFile" value="null" />
		<!-- Optional input file containing additional attributes for transit stop facilities, stored as ObjectAttributes. -->
		<param name="transitStopsAttributesFile" value="null" />
		<!-- Set this parameter to true if transit should be simulated, false if not. -->
		<param name="useTransit" value="false" />
		<!-- Input file containing the vehicles used by the departures in the transit schedule. -->
		<param name="vehiclesFile" value="null" />
	</module>
	<module name="transitRouter" >
		<!-- additional time the router allocates when a line switch happens. Can be interpreted as a 'safety' time that agents need to safely transfer from one line to another -->
		<param name="additionalTransferTime" value="0.0" />
		<!-- Factor with which direct walk generalized cost is multiplied before it is compared to the pt generalized cost.  Set to a very high value to reduce direct walk results. -->
		<param name="directWalkFactor" value="1.0" />
		<!-- step size to increase searchRadius if no stops are found -->
		<param name="extensionRadius" value="200.0" />
		<!-- maximum beeline distance between stops that agents could transfer to by walking -->
		<param name="maxBeelineWalkConnectionDistance" value="100.0" />
		<!-- the radius in which stop locations are searched, given a start or target coordinate -->
		<param name="searchRadius" value="1000.0" />
	</module>
	<module name="travelTimeCalculator" >
		<!-- (only for backwards compatibility; only used if separateModes==false && + filterModes==true)  Transport modes that will be respected by the travel time collector. 'car' is default which includes also buses from the pt simulation module. -->
		<param name="analyzedModes" value="car" />
		<param name="calculateLinkToLinkTravelTimes" value="false" />
		<param name="calculateLinkTravelTimes" value="true" />
		<!-- (only for backwards compatiblity; only used if separateModes==false)  Only modes included in analyzedModes are included. -->
		<param name="filterModes" value="false" />
		<!-- The lenght (in sec) of the time period that is splited into time bins; an additional time bin is created to aggregate all travel times collected after maxTime -->
		<param name="maxTime" value="108000" />
		<!-- (only for backwards compatibility) If false, link travel times are measured and aggregated over all vehicles using the link. -->
		<param name="separateModes" value="true" />
		<!-- How to deal with congested time bins that have no link entry events. `optimistic' assumes free speed (too optimistic); 'experimental_LastMile' is experimental and probably too pessimistic. -->
		<param name="travelTimeAggregator" value="optimistic" />
		<!-- The size of the time bin (in sec) into which the link travel times are aggregated for the router -->
		<param name="travelTimeBinSize" value="900" />
		<!-- possible values: TravelTimeCalculatorArray TravelTimeCalculatorHashMap  -->
		<param name="travelTimeCalculator" value="TravelTimeCalculatorArray" />
		<!-- How to deal with link entry times at different positions during the time bin. Currently supported: average, linearinterpolation -->
		<param name="travelTimeGetter" value="average" />
	</module>
	<module name="vehicles" >
		<param name="vehiclesFile" value="null" />
	</module>
	<module name="vspExperimental" >
		<!-- (do not use except of you have to) There was a problem with pt interaction scoring.  Some people solved it by overwriting the parameters of the pt interaction activity type.  Doing this now throws an Exception.  If you still insist on doing this, set the following to true. -->
		<param name="isAbleToOverwritePtInteractionParams" value="false" />
		<param name="isGeneratingBoardingDeniedEvent" value="false" />
		<!-- if an approximation of the opportunity cost of time is included into the radius calculation for location choice.`true' will be faster, but it is an approximation.  Default is `true'; `false' is available for backwards compatibility. -->
		<param name="isUsingOpportunityCostOfTimeForLocationChoice" value="true" />
		<param name="logitScaleParamForPlansRemoval" value="1.0" />
		<!-- Options: | ignore | info | warn | abort | .  When violating VSP defaults, this results in nothing, logfile infos, logfile warnings, or aborts.  Members of VSP should use `abort' or talk to kai. -->
		<param name="vspDefaultsCheckingLevel" value="ignore" />
		<!-- if true then writes output_events in output directory.  default is `false'. Will only work when lastIteration is multiple of events writing interval -->
		<param name="writingOutputEvents" value="true" />
	</module>

</config>

2019-12-04 17:25:11,842  INFO ControlerUtils:63 Complete config dump done.
2019-12-04 17:25:11,842  INFO ControlerUtils:64 Checking consistency of config...
2019-12-04 17:25:11,842  INFO VspConfigConsistencyCheckerImpl:58 NOT running vsp config consistency check because vsp defaults checking level is set to IGNORE
2019-12-04 17:25:11,842  INFO ControlerUtils:66 Checking consistency of config done.
2019-12-04 17:25:11,847 DEBUG NetworkRoutingProvider:75 requesting network routing module with routingMode=car;	mode=car
2019-12-04 17:25:11,848 DEBUG NetworkRoutingProvider:75 requesting network routing module with routingMode=car;	mode=car
2019-12-04 17:25:11,849  INFO Counter:70 [PersonPrepareForSim] handled person # 2
2019-12-04 17:25:11,849  INFO Counter:70 [PersonPrepareForSim] handled person # 1
2019-12-04 17:25:11,850  INFO Counter:70 [PersonPrepareForSim] handled person # 4
2019-12-04 17:25:11,850  INFO Counter:70 [PersonPrepareForSim] handled person # 8
2019-12-04 17:25:11,851  INFO Counter:70 [PersonPrepareForSim] handled person # 16
2019-12-04 17:25:11,851  INFO Counter:70 [PersonPrepareForSim] handled person # 32
2019-12-04 17:25:11,851  INFO Counter:70 [PersonPrepareForSim] handled person # 64
2019-12-04 17:25:11,852  INFO Counter:76 [PersonPrepareForSim] handled person # 100
2019-12-04 17:25:11,853  INFO Counter:70 [VehiclesImpl] added vehicle # 1
2019-12-04 17:25:11,853  INFO Counter:70 [VehiclesImpl] added vehicle # 2
2019-12-04 17:25:11,853  INFO Counter:70 [VehiclesImpl] added vehicle # 4
2019-12-04 17:25:11,854  INFO Counter:70 [VehiclesImpl] added vehicle # 8
2019-12-04 17:25:11,854  INFO Counter:70 [VehiclesImpl] added vehicle # 16
2019-12-04 17:25:11,854  INFO Counter:70 [VehiclesImpl] added vehicle # 32
2019-12-04 17:25:11,855  INFO Counter:70 [VehiclesImpl] added vehicle # 64
2019-12-04 17:25:11,856  INFO AbstractController:123 ###################################################
2019-12-04 17:25:11,856  INFO AbstractController:124 ### ITERATION 0 BEGINS
2019-12-04 17:25:11,857  INFO ControlerListenerManagerImpl:145 calling notifyIterationStarts on org.matsim.analysis.LegHistogramListener
2019-12-04 17:25:11,858  INFO ControlerListenerManagerImpl:145 calling notifyIterationStarts on org.matsim.analysis.LinkStatsControlerListener
2019-12-04 17:25:11,858  INFO ControlerListenerManagerImpl:145 calling notifyIterationStarts on org.matsim.core.replanning.ReplanningContextImpl
2019-12-04 17:25:11,858  INFO ControlerListenerManagerImpl:145 calling notifyIterationStarts on org.matsim.core.scoring.ExperiencedPlansServiceImpl$1
2019-12-04 17:25:11,858  INFO ControlerListenerManagerImpl:145 calling notifyIterationStarts on org.matsim.core.scoring.ScoringFunctionsForPopulation$1
2019-12-04 17:25:11,874  INFO ControlerListenerManagerImpl:148 [it.0] all ControlerIterationStartsListeners called.
2019-12-04 17:25:11,875  INFO ControlerListenerManagerImpl:224 calling notifyBeforeMobsim on org.matsim.core.controler.corelisteners.EventsHandlingImpl
2019-12-04 17:25:11,875  INFO EventsManagerImpl:170 resetting Event-Handlers
2019-12-04 17:25:11,875  INFO EventsManagerImpl:177   org.matsim.core.trafficmonitoring.TravelTimeCalculator
2019-12-04 17:25:11,876  INFO EventsManagerImpl:177   org.matsim.core.scoring.EventsToLegsAndActivities
2019-12-04 17:25:11,876  INFO EventsManagerImpl:177   org.matsim.analysis.VolumesAnalyzer
2019-12-04 17:25:11,876  INFO EventsManagerImpl:177   org.matsim.core.events.algorithms.Vehicle2DriverEventHandler
2019-12-04 17:25:11,876  INFO EventsManagerImpl:177   org.matsim.core.scoring.ScoringFunctionsForPopulation
2019-12-04 17:25:11,877  INFO EventsManagerImpl:177   org.matsim.analysis.LegHistogram
2019-12-04 17:25:11,877  INFO EventsManagerImpl:177   org.matsim.analysis.CalcLegTimes
2019-12-04 17:25:11,880  INFO EventsManagerImpl:144 adding Event-Handler: org.matsim.core.events.algorithms.EventWriterXML
2019-12-04 17:25:11,880  INFO EventsManagerImpl:148   org.matsim.core.events.algorithms.EventWriter
2019-12-04 17:25:11,881  INFO EventsManagerImpl:148   org.matsim.core.events.handler.BasicEventHandler
2019-12-04 17:25:11,881  INFO EventsManagerImpl:207     > org.matsim.api.core.v01.events.Event
2019-12-04 17:25:11,881  INFO EventsManagerImpl:156 
2019-12-04 17:25:11,881  INFO EventsManagerImpl:144 adding Event-Handler: org.matsim.core.events.algorithms.EventWriterXML
2019-12-04 17:25:11,881  INFO EventsManagerImpl:148   org.matsim.core.events.algorithms.EventWriter
2019-12-04 17:25:11,882  INFO EventsManagerImpl:148   org.matsim.core.events.handler.BasicEventHandler
2019-12-04 17:25:11,882  INFO EventsManagerImpl:207     > org.matsim.api.core.v01.events.Event
2019-12-04 17:25:11,882  INFO EventsManagerImpl:156 
2019-12-04 17:25:11,882  INFO ControlerListenerManagerImpl:224 calling notifyBeforeMobsim on org.matsim.core.controler.corelisteners.PlansDumpingImpl
2019-12-04 17:25:11,882  INFO PlansDumpingImpl:76 dumping plans...
2019-12-04 17:25:11,891  INFO Counter:70 [PopulationWriter] dumped person # 1
2019-12-04 17:25:11,891  INFO Counter:70 [PopulationWriter] dumped person # 2
2019-12-04 17:25:11,892  INFO Counter:70 [PopulationWriter] dumped person # 4
2019-12-04 17:25:11,893  INFO Counter:70 [PopulationWriter] dumped person # 8
2019-12-04 17:25:11,894  INFO Counter:70 [PopulationWriter] dumped person # 16
2019-12-04 17:25:11,896  INFO Counter:70 [PopulationWriter] dumped person # 32
2019-12-04 17:25:11,904  INFO Counter:70 [PopulationWriter] dumped person # 64
2019-12-04 17:25:11,911  INFO PopulationWriter:139 Population written to: ./output/ITERS/it.0/0.plans.xml.gz
2019-12-04 17:25:11,913  INFO Counter:76 [PopulationWriter] dumped person # 100
2019-12-04 17:25:11,913  INFO PlansDumpingImpl:93 finished plans dump.
2019-12-04 17:25:11,913  INFO ControlerListenerManagerImpl:229 calling notifyBeforeMobsim on org.matsim.core.population.VspPlansCleaner
2019-12-04 17:25:11,914  INFO ControlerListenerManagerImpl:232 [it.0] all ControlerBeforeMobsimListeners called.
2019-12-04 17:25:11,915 DEBUG NetworkRoutingProvider:75 requesting network routing module with routingMode=car;	mode=car
2019-12-04 17:25:11,916 DEBUG NetworkRoutingProvider:75 requesting network routing module with routingMode=car;	mode=car
2019-12-04 17:25:11,918  INFO Counter:70 [PersonPrepareForSim] handled person # 1
2019-12-04 17:25:11,918  INFO Counter:70 [PersonPrepareForSim] handled person # 4
2019-12-04 17:25:11,919  INFO Counter:70 [PersonPrepareForSim] handled person # 8
2019-12-04 17:25:11,919  INFO Counter:70 [PersonPrepareForSim] handled person # 16
2019-12-04 17:25:11,918  INFO Counter:70 [PersonPrepareForSim] handled person # 2
2019-12-04 17:25:11,920  INFO Counter:70 [PersonPrepareForSim] handled person # 64
2019-12-04 17:25:11,919  INFO Counter:70 [PersonPrepareForSim] handled person # 32
2019-12-04 17:25:11,921  INFO Counter:76 [PersonPrepareForSim] handled person # 100
2019-12-04 17:25:12,037  INFO MobsimListenerManager:49 calling addQueueSimulationListener
2019-12-04 17:25:12,038  INFO MobsimListenerManager:53   assigned class org.matsim.core.mobsim.framework.listeners.MobsimListener to interface org.matsim.core.mobsim.framework.listeners.MobsimAfterSimStepListener
2019-12-04 17:25:12,038  INFO MobsimListenerManager:53   assigned class org.matsim.core.mobsim.framework.listeners.MobsimListener to interface org.matsim.vis.snapshotwriters.SnapshotWriterManager
2019-12-04 17:25:12,039  INFO MobsimListenerManager:53   assigned class org.matsim.core.mobsim.framework.listeners.MobsimListener to interface org.matsim.core.mobsim.framework.listeners.MobsimBeforeCleanupListener
2019-12-04 17:25:12,039  INFO MobsimListenerManager:53   assigned class org.matsim.core.mobsim.framework.listeners.MobsimListener to interface org.matsim.core.mobsim.framework.listeners.MobsimInitializedListener
2019-12-04 17:25:12,039  INFO MobsimListenerManager:53   assigned class org.matsim.core.mobsim.framework.listeners.MobsimListener to interface org.matsim.core.mobsim.framework.listeners.MobsimListener
2019-12-04 17:25:12,056  WARN QueueWithBuffer:378 Link 1 too small: enlarge storage capacity from: 1333.3333333333333 Vehicles to: 3599.712023038157 Vehicles.  This is not fatal, but modifies the traffic flow dynamics.
2019-12-04 17:25:12,059  WARN QueueWithBuffer:378 Link 20 too small: enlarge storage capacity from: 1333.3333333333333 Vehicles to: 3599.712023038157 Vehicles.  This is not fatal, but modifies the traffic flow dynamics.
2019-12-04 17:25:12,061  WARN QueueWithBuffer:378 Link 21 too small: enlarge storage capacity from: 1333.3333333333333 Vehicles to: 3599.712023038157 Vehicles.  This is not fatal, but modifies the traffic flow dynamics.
2019-12-04 17:25:12,062  WARN QueueWithBuffer:378 Link 22 too small: enlarge storage capacity from: 4666.666666666667 Vehicles to: 12598.99208063355 Vehicles.  This is not fatal, but modifies the traffic flow dynamics.
2019-12-04 17:25:12,064  WARN QueueWithBuffer:378 Link 23 too small: enlarge storage capacity from: 1333.3333333333333 Vehicles to: 3599.712023038157 Vehicles.  This is not fatal, but modifies the traffic flow dynamics.
2019-12-04 17:25:12,077  INFO QSimProvider:111 Added MobsimEngine class org.matsim.core.mobsim.qsim.ActivityEngine
2019-12-04 17:25:12,078  INFO QSimProvider:117 Added Activityhandler class org.matsim.core.mobsim.qsim.ActivityEngine
2019-12-04 17:25:12,079  INFO QSimProvider:123 Added DepartureHandler class org.matsim.core.mobsim.qsim.qnetsimengine.VehicularDepartureHandler
2019-12-04 17:25:12,079  INFO QSimProvider:111 Added MobsimEngine class org.matsim.core.mobsim.qsim.qnetsimengine.QNetsimEngine
2019-12-04 17:25:12,079  INFO QSimProvider:111 Added MobsimEngine class org.matsim.core.mobsim.qsim.DefaultTeleportationEngine
2019-12-04 17:25:12,080  INFO QSimProvider:123 Added DepartureHandler class org.matsim.core.mobsim.qsim.DefaultTeleportationEngine
2019-12-04 17:25:12,080  INFO QSimProvider:129 Added AgentSource class org.matsim.core.mobsim.qsim.agents.PopulationAgentSource
2019-12-04 17:25:12,082  INFO MobsimListenerManager:49 calling addQueueSimulationListener
2019-12-04 17:25:12,082  INFO MobsimListenerManager:53   assigned class org.matsim.core.mobsim.framework.listeners.MobsimListener to interface org.matsim.core.mobsim.qsim.messagequeueengine.MessageQueueEngine
2019-12-04 17:25:12,082  INFO MobsimListenerManager:53   assigned class org.matsim.core.mobsim.framework.listeners.MobsimListener to interface org.matsim.core.mobsim.framework.listeners.MobsimBeforeSimStepListener
2019-12-04 17:25:12,083  INFO MobsimListenerManager:53   assigned class org.matsim.core.mobsim.framework.listeners.MobsimListener to interface org.matsim.core.mobsim.framework.listeners.MobsimListener
2019-12-04 17:25:12,083  INFO QSimProvider:135 Added MobsimListener class org.matsim.core.mobsim.qsim.messagequeueengine.MessageQueueEngine
2019-12-04 17:25:12,113  INFO QNetsimEngine:506 Assigned 15 nodes and 23 links to QSimEngineRunner #0
2019-12-04 17:25:12,121  INFO EventsManagerImpl:134  event # 1
2019-12-04 17:25:12,127  INFO QNetsimEngine:346 SIMULATION (QNetsimEngine) AT 05:58:30 : #links=0 #nodes=1
2019-12-04 17:25:12,129  INFO QSim:505 SIMULATION (NEW QSim) AT 05:58:30 : #Veh=100 lost=0 simT=0.0s realT=0s; (s/r): 0.0
2019-12-04 17:25:12,129  INFO Gbl:58 used RAM: 59018528B = 57635kB = 56MB  free: 207319776B = 197MB  total: 266338304B = 254MB
2019-12-04 17:25:12,132  INFO EventsManagerImpl:134  event # 4
2019-12-04 17:25:12,169  INFO EventsManagerImpl:134  event # 16
2019-12-04 17:25:12,188  INFO EventsManagerImpl:134  event # 64
2019-12-04 17:25:12,203  INFO EventsManagerImpl:134  event # 256
2019-12-04 17:25:12,204  INFO QNetsimEngine:346 SIMULATION (QNetsimEngine) AT 06:00:00 : #links=2 #nodes=1
2019-12-04 17:25:12,209  INFO QSim:505 SIMULATION (NEW QSim) AT 06:00:00 : #Veh=100 lost=0 simT=90.0s realT=0s; (s/r): Infinity
2019-12-04 17:25:12,210  INFO Gbl:58 used RAM: 59540768B = 58145kB = 56MB  free: 206797536B = 197MB  total: 266338304B = 254MB
2019-12-04 17:25:12,346  INFO EventsManagerImpl:134  event # 1024
2019-12-04 17:25:12,574  INFO QNetsimEngine:346 SIMULATION (QNetsimEngine) AT 07:00:00 : #links=1 #nodes=0
2019-12-04 17:25:12,575  INFO QSim:505 SIMULATION (NEW QSim) AT 07:00:00 : #Veh=100 lost=0 simT=3690.0s realT=0s; (s/r): Infinity
2019-12-04 17:25:12,575  INFO Gbl:58 used RAM: 64261408B = 62755kB = 61MB  free: 202076896B = 192MB  total: 266338304B = 254MB
2019-12-04 17:25:12,841  INFO QNetsimEngine:346 SIMULATION (QNetsimEngine) AT 08:00:00 : #links=1 #nodes=0
2019-12-04 17:25:12,841  INFO QSim:505 SIMULATION (NEW QSim) AT 08:00:00 : #Veh=5 lost=0 simT=7290.0s realT=0s; (s/r): Infinity
2019-12-04 17:25:12,842  INFO Gbl:58 used RAM: 67929376B = 66337kB = 64MB  free: 198408928B = 189MB  total: 266338304B = 254MB
2019-12-04 17:25:13,075  INFO QNetsimEngine:346 SIMULATION (QNetsimEngine) AT 09:00:00 : #links=1 #nodes=0
2019-12-04 17:25:13,076  INFO QSim:505 SIMULATION (NEW QSim) AT 09:00:00 : #Veh=4 lost=0 simT=10890.0s realT=1s; (s/r): 10890.0
2019-12-04 17:25:13,076  INFO Gbl:58 used RAM: 71075104B = 69409kB = 67MB  free: 195263200B = 186MB  total: 266338304B = 254MB
2019-12-04 17:25:13,303  INFO QNetsimEngine:346 SIMULATION (QNetsimEngine) AT 10:00:00 : #links=0 #nodes=0
2019-12-04 17:25:13,303  INFO QSim:505 SIMULATION (NEW QSim) AT 10:00:00 : #Veh=2 lost=0 simT=14490.0s realT=1s; (s/r): 14490.0
2019-12-04 17:25:13,303  INFO Gbl:58 used RAM: 73172256B = 71457kB = 69MB  free: 193166048B = 184MB  total: 266338304B = 254MB
2019-12-04 17:25:13,504  INFO QNetsimEngine:346 SIMULATION (QNetsimEngine) AT 11:00:00 : #links=0 #nodes=0
2019-12-04 17:25:13,504  INFO QSim:505 SIMULATION (NEW QSim) AT 11:00:00 : #Veh=1 lost=0 simT=18090.0s realT=1s; (s/r): 18090.0
2019-12-04 17:25:13,504  INFO Gbl:58 used RAM: 74747168B = 72995kB = 71MB  free: 191591136B = 182MB  total: 266338304B = 254MB
2019-12-04 17:25:13,705  INFO QNetsimEngine:346 SIMULATION (QNetsimEngine) AT 12:00:00 : #links=0 #nodes=0
2019-12-04 17:25:13,706  INFO QSim:505 SIMULATION (NEW QSim) AT 12:00:00 : #Veh=1 lost=0 simT=21690.0s realT=1s; (s/r): 21690.0
2019-12-04 17:25:13,706  INFO Gbl:58 used RAM: 76844320B = 75043kB = 73MB  free: 189493984B = 180MB  total: 266338304B = 254MB
2019-12-04 17:25:13,905  INFO QNetsimEngine:346 SIMULATION (QNetsimEngine) AT 13:00:00 : #links=1 #nodes=0
2019-12-04 17:25:13,906  INFO QSim:505 SIMULATION (NEW QSim) AT 13:00:00 : #Veh=1 lost=0 simT=25290.0s realT=1s; (s/r): 25290.0
2019-12-04 17:25:13,906  INFO Gbl:58 used RAM: 78415136B = 76577kB = 74MB  free: 187923168B = 179MB  total: 266338304B = 254MB
2019-12-04 17:25:13,988  INFO Gbl:191 Thread performance: Thread=class org.matsim.core.events.SimStepParallelEventsManagerImpl$ProcessEventsRunnable0  cpu-time=0.34375sec
2019-12-04 17:25:13,988  INFO AbstractController$9:220 ### ITERATION 0 fires after mobsim event
2019-12-04 17:25:13,988  INFO ControlerListenerManagerImpl:248 calling notifyAfterMobsim on org.matsim.analysis.LegTimesControlerListener
2019-12-04 17:25:13,989  INFO LegTimesControlerListener:50 [0] average trip (probably: leg) duration is: 1695 seconds = 00:28:15
2019-12-04 17:25:13,990  INFO ControlerListenerManagerImpl:248 calling notifyAfterMobsim on org.matsim.core.scoring.EventsToActivities$1
2019-12-04 17:25:13,991  INFO ControlerListenerManagerImpl:251 [it.0] all ControlerAfterMobsimListeners called.
2019-12-04 17:25:13,991  INFO AbstractController$4:149 ### ITERATION 0 fires scoring event
2019-12-04 17:25:13,991  INFO ControlerListenerManagerImpl:183 calling notifyScoring on org.matsim.core.scoring.PlansScoringImpl
2019-12-04 17:25:13,992  INFO NewScoreAssignerImpl:36 it: 0 msaStart: null
2019-12-04 17:25:13,992  INFO ControlerListenerManagerImpl:194 [it.0] all ControlerScoringListeners called.
2019-12-04 17:25:13,992  INFO AbstractController$5:157 ### ITERATION 0 fires iteration end event
2019-12-04 17:25:13,992  INFO ControlerListenerManagerImpl:160 calling notifyIterationEnds on org.matsim.core.controler.corelisteners.EventsHandlingImpl
2019-12-04 17:25:13,994  INFO EventsManagerImpl:161 removing Event-Handler: org.matsim.core.events.algorithms.EventWriterXML
2019-12-04 17:25:13,994  INFO EventsManagerImpl:161 removing Event-Handler: org.matsim.core.events.algorithms.EventWriterXML
2019-12-04 17:25:13,995  INFO ControlerListenerManagerImpl:160 calling notifyIterationEnds on org.matsim.core.scoring.PlansScoringImpl
2019-12-04 17:25:13,995  INFO ControlerListenerManagerImpl:167 calling notifyIterationEnds on org.matsim.counts.CountsControlerListener
2019-12-04 17:25:13,995  INFO ControlerListenerManagerImpl:167 calling notifyIterationEnds on org.matsim.analysis.ModeStatsControlerListener
2019-12-04 17:25:13,997  INFO ModeStatsControlerListener:155 -- mode share of mode bike = 0.0
2019-12-04 17:25:13,997  INFO ModeStatsControlerListener:155 -- mode share of mode car = 1.0
2019-12-04 17:25:13,998  INFO ModeStatsControlerListener:155 -- mode share of mode other = 0.0
2019-12-04 17:25:13,998  INFO ModeStatsControlerListener:155 -- mode share of mode pt = 0.0
2019-12-04 17:25:13,998  INFO ModeStatsControlerListener:155 -- mode share of mode ride = 0.0
2019-12-04 17:25:13,998  INFO ModeStatsControlerListener:155 -- mode share of mode walk = 0.0
2019-12-04 17:25:13,999  INFO ControlerListenerManagerImpl:167 calling notifyIterationEnds on org.matsim.analysis.ScoreStatsControlerListener
2019-12-04 17:25:13,999  INFO ScoreStatsControlerListener:191 -- avg. score of the executed plan of each agent: 64.75686659291274
2019-12-04 17:25:13,999  INFO ScoreStatsControlerListener:192 -- avg. score of the worst plan of each agent: 64.75686659291274
2019-12-04 17:25:13,999  INFO ScoreStatsControlerListener:193 -- avg. of the avg. plan score per agent: 64.75686659291274
2019-12-04 17:25:13,999  INFO ScoreStatsControlerListener:194 -- avg. score of the best plan of each agent: 64.75686659291274
2019-12-04 17:25:14,000  INFO ControlerListenerManagerImpl:167 calling notifyIterationEnds on org.matsim.analysis.TravelDistanceStatsControlerListener
2019-12-04 17:25:14,000  INFO TravelDistanceStats:128 [TravelDistanceStats] using 2 thread(s).
2019-12-04 17:25:14,001  INFO TravelDistanceStats:141 [TravelDistanceStats] all threads finished.
2019-12-04 17:25:14,001  INFO TravelDistanceStats:161 -- average of the average leg distance per plan (executed plans only): 44850.0
2019-12-04 17:25:14,002  INFO TravelDistanceStats:162 (TravelDistanceStats takes an average over all legs where the simulation reports travelled distances. These are car legs, pt legs,
2019-12-04 17:25:14,002  INFO TravelDistanceStats:163 (and teleported legs whose route contains a distance.)
2019-12-04 17:25:14,002  INFO ControlerListenerManagerImpl:167 calling notifyIterationEnds on org.matsim.analysis.LegHistogramListener
2019-12-04 17:25:14,006  INFO LegHistogramListener:72 number of legs:	201	100%
2019-12-04 17:25:14,006  INFO LegHistogramListener:79 number of car legs:	201	100.0%
2019-12-04 17:25:14,782  INFO ControlerListenerManagerImpl:167 calling notifyIterationEnds on org.matsim.analysis.LinkStatsControlerListener
2019-12-04 17:25:14,783  INFO ControlerListenerManagerImpl:171 [it.0] all ControlerIterationEndsListeners called.
2019-12-04 17:25:15,030  INFO AbstractController:167 ### ITERATION 0 ENDS
2019-12-04 17:25:15,030  INFO AbstractController:168 ###################################################
2019-12-04 17:25:15,031  INFO AbstractController:123 ###################################################
2019-12-04 17:25:15,031  INFO AbstractController:124 ### ITERATION 1 BEGINS
2019-12-04 17:25:15,031  INFO ControlerListenerManagerImpl:145 calling notifyIterationStarts on org.matsim.analysis.LegHistogramListener
2019-12-04 17:25:15,031  INFO ControlerListenerManagerImpl:145 calling notifyIterationStarts on org.matsim.analysis.LinkStatsControlerListener
2019-12-04 17:25:15,032  INFO ControlerListenerManagerImpl:145 calling notifyIterationStarts on org.matsim.core.replanning.ReplanningContextImpl
2019-12-04 17:25:15,032  INFO ControlerListenerManagerImpl:145 calling notifyIterationStarts on org.matsim.core.scoring.ExperiencedPlansServiceImpl$1
2019-12-04 17:25:15,032  INFO ControlerListenerManagerImpl:145 calling notifyIterationStarts on org.matsim.core.scoring.ScoringFunctionsForPopulation$1
2019-12-04 17:25:15,033  INFO ControlerListenerManagerImpl:148 [it.1] all ControlerIterationStartsListeners called.
2019-12-04 17:25:15,034  INFO ControlerListenerManagerImpl:205 calling notifyReplanning on org.matsim.core.controler.corelisteners.PlansReplanningImpl
2019-12-04 17:25:15,034 DEBUG NetworkRoutingProvider:75 requesting network routing module with routingMode=car;	mode=car
2019-12-04 17:25:15,035 DEBUG NetworkRoutingProvider:75 requesting network routing module with routingMode=car;	mode=car
2019-12-04 17:25:15,037  INFO GenericPlanStrategyImpl:125 Plan-Strategy finished, 89 plans handled. Strategy: BestPlanSelector
2019-12-04 17:25:15,038  INFO AbstractMultithreadedModule:141 [PlanRouter] starting 2 threads, handling 11 plans
2019-12-04 17:25:15,047  INFO Counter:70 [PlanRouter] handled plan # 1
2019-12-04 17:25:15,047  INFO Counter:70 [PlanRouter] handled plan # 2
2019-12-04 17:25:15,048  INFO Counter:70 [PlanRouter] handled plan # 4
2019-12-04 17:25:15,048  INFO Counter:70 [PlanRouter] handled plan # 8
2019-12-04 17:25:15,049  INFO AbstractMultithreadedModule:156 [PlanRouter] all 2 threads finished.
2019-12-04 17:25:15,051  INFO GenericPlanStrategyImpl:125 Plan-Strategy finished, 11 plans handled. Strategy: RandomPlanSelector_ReRoute
2019-12-04 17:25:15,051  INFO ControlerListenerManagerImpl:213 [it.1] all ControlerReplanningListeners called.
2019-12-04 17:25:15,051  INFO ControlerListenerManagerImpl:224 calling notifyBeforeMobsim on org.matsim.core.controler.corelisteners.EventsHandlingImpl
2019-12-04 17:25:15,052  INFO EventsManagerImpl:170 resetting Event-Handlers
2019-12-04 17:25:15,052  INFO EventsManagerImpl:177   org.matsim.core.trafficmonitoring.TravelTimeCalculator
2019-12-04 17:25:15,052  INFO EventsManagerImpl:177   org.matsim.core.scoring.EventsToLegsAndActivities
2019-12-04 17:25:15,052  INFO EventsManagerImpl:177   org.matsim.analysis.VolumesAnalyzer
2019-12-04 17:25:15,053  INFO EventsManagerImpl:177   org.matsim.core.events.algorithms.Vehicle2DriverEventHandler
2019-12-04 17:25:15,053  INFO EventsManagerImpl:177   org.matsim.core.scoring.ScoringFunctionsForPopulation
2019-12-04 17:25:15,053  INFO EventsManagerImpl:177   org.matsim.analysis.LegHistogram
2019-12-04 17:25:15,053  INFO EventsManagerImpl:177   org.matsim.analysis.CalcLegTimes
2019-12-04 17:25:15,053  INFO ControlerListenerManagerImpl:224 calling notifyBeforeMobsim on org.matsim.core.controler.corelisteners.PlansDumpingImpl
2019-12-04 17:25:15,054  INFO PlansDumpingImpl:76 dumping plans...
2019-12-04 17:25:15,056  INFO Counter:70 [PopulationWriter] dumped person # 1
2019-12-04 17:25:15,056  INFO Counter:70 [PopulationWriter] dumped person # 2
2019-12-04 17:25:15,056  INFO Counter:70 [PopulationWriter] dumped person # 4
2019-12-04 17:25:15,057  INFO Counter:70 [PopulationWriter] dumped person # 8
2019-12-04 17:25:15,058  INFO Counter:70 [PopulationWriter] dumped person # 16
2019-12-04 17:25:15,060  INFO Counter:70 [PopulationWriter] dumped person # 32
2019-12-04 17:25:15,063  INFO Counter:70 [PopulationWriter] dumped person # 64
2019-12-04 17:25:15,067  INFO PopulationWriter:139 Population written to: ./output/ITERS/it.1/1.plans.xml.gz
2019-12-04 17:25:15,071  INFO Counter:76 [PopulationWriter] dumped person # 100
2019-12-04 17:25:15,072  INFO PlansDumpingImpl:93 finished plans dump.
2019-12-04 17:25:15,072  INFO ControlerListenerManagerImpl:229 calling notifyBeforeMobsim on org.matsim.core.population.VspPlansCleaner
2019-12-04 17:25:15,072  INFO ControlerListenerManagerImpl:232 [it.1] all ControlerBeforeMobsimListeners called.
2019-12-04 17:25:15,073 DEBUG NetworkRoutingProvider:75 requesting network routing module with routingMode=car;	mode=car
2019-12-04 17:25:15,075 DEBUG NetworkRoutingProvider:75 requesting network routing module with routingMode=car;	mode=car
2019-12-04 17:25:15,079  INFO Counter:70 [PersonPrepareForSim] handled person # 1
2019-12-04 17:25:15,080  INFO Counter:70 [PersonPrepareForSim] handled person # 2
2019-12-04 17:25:15,081  INFO Counter:70 [PersonPrepareForSim] handled person # 4
2019-12-04 17:25:15,081  INFO Counter:70 [PersonPrepareForSim] handled person # 8
2019-12-04 17:25:15,083  INFO Counter:70 [PersonPrepareForSim] handled person # 16
2019-12-04 17:25:15,083  INFO Counter:70 [PersonPrepareForSim] handled person # 32
2019-12-04 17:25:15,085  INFO Counter:70 [PersonPrepareForSim] handled person # 64
2019-12-04 17:25:15,086  INFO Counter:76 [PersonPrepareForSim] handled person # 100
2019-12-04 17:25:15,131  INFO MobsimListenerManager:49 calling addQueueSimulationListener
2019-12-04 17:25:15,132  INFO MobsimListenerManager:53   assigned class org.matsim.core.mobsim.framework.listeners.MobsimListener to interface org.matsim.core.mobsim.framework.listeners.MobsimAfterSimStepListener
2019-12-04 17:25:15,135  INFO MobsimListenerManager:53   assigned class org.matsim.core.mobsim.framework.listeners.MobsimListener to interface org.matsim.vis.snapshotwriters.SnapshotWriterManager
2019-12-04 17:25:15,136  INFO MobsimListenerManager:53   assigned class org.matsim.core.mobsim.framework.listeners.MobsimListener to interface org.matsim.core.mobsim.framework.listeners.MobsimBeforeCleanupListener
2019-12-04 17:25:15,136  INFO MobsimListenerManager:53   assigned class org.matsim.core.mobsim.framework.listeners.MobsimListener to interface org.matsim.core.mobsim.framework.listeners.MobsimInitializedListener
2019-12-04 17:25:15,137  INFO MobsimListenerManager:53   assigned class org.matsim.core.mobsim.framework.listeners.MobsimListener to interface org.matsim.core.mobsim.framework.listeners.MobsimListener
2019-12-04 17:25:15,137  WARN QueueWithBuffer:378 Link 1 too small: enlarge storage capacity from: 1333.3333333333333 Vehicles to: 3599.712023038157 Vehicles.  This is not fatal, but modifies the traffic flow dynamics.
2019-12-04 17:25:15,138  WARN QueueWithBuffer:378 Link 20 too small: enlarge storage capacity from: 1333.3333333333333 Vehicles to: 3599.712023038157 Vehicles.  This is not fatal, but modifies the traffic flow dynamics.
2019-12-04 17:25:15,138  WARN QueueWithBuffer:378 Link 21 too small: enlarge storage capacity from: 1333.3333333333333 Vehicles to: 3599.712023038157 Vehicles.  This is not fatal, but modifies the traffic flow dynamics.
2019-12-04 17:25:15,139  WARN QueueWithBuffer:378 Link 22 too small: enlarge storage capacity from: 4666.666666666667 Vehicles to: 12598.99208063355 Vehicles.  This is not fatal, but modifies the traffic flow dynamics.
2019-12-04 17:25:15,139  WARN QueueWithBuffer:378 Link 23 too small: enlarge storage capacity from: 1333.3333333333333 Vehicles to: 3599.712023038157 Vehicles.  This is not fatal, but modifies the traffic flow dynamics.
2019-12-04 17:25:15,140  INFO QSimProvider:111 Added MobsimEngine class org.matsim.core.mobsim.qsim.ActivityEngine
2019-12-04 17:25:15,140  INFO QSimProvider:117 Added Activityhandler class org.matsim.core.mobsim.qsim.ActivityEngine
2019-12-04 17:25:15,141  INFO QSimProvider:123 Added DepartureHandler class org.matsim.core.mobsim.qsim.qnetsimengine.VehicularDepartureHandler
2019-12-04 17:25:15,141  INFO QSimProvider:111 Added MobsimEngine class org.matsim.core.mobsim.qsim.qnetsimengine.QNetsimEngine
2019-12-04 17:25:15,141  INFO QSimProvider:111 Added MobsimEngine class org.matsim.core.mobsim.qsim.DefaultTeleportationEngine
2019-12-04 17:25:15,142  INFO QSimProvider:123 Added DepartureHandler class org.matsim.core.mobsim.qsim.DefaultTeleportationEngine
2019-12-04 17:25:15,142  INFO QSimProvider:129 Added AgentSource class org.matsim.core.mobsim.qsim.agents.PopulationAgentSource
2019-12-04 17:25:15,142  INFO MobsimListenerManager:49 calling addQueueSimulationListener
2019-12-04 17:25:15,142  INFO MobsimListenerManager:53   assigned class org.matsim.core.mobsim.framework.listeners.MobsimListener to interface org.matsim.core.mobsim.qsim.messagequeueengine.MessageQueueEngine
2019-12-04 17:25:15,143  INFO MobsimListenerManager:53   assigned class org.matsim.core.mobsim.framework.listeners.MobsimListener to interface org.matsim.core.mobsim.framework.listeners.MobsimBeforeSimStepListener
2019-12-04 17:25:15,143  INFO MobsimListenerManager:53   assigned class org.matsim.core.mobsim.framework.listeners.MobsimListener to interface org.matsim.core.mobsim.framework.listeners.MobsimListener
2019-12-04 17:25:15,143  INFO QSimProvider:135 Added MobsimListener class org.matsim.core.mobsim.qsim.messagequeueengine.MessageQueueEngine
2019-12-04 17:25:15,145  INFO QNetsimEngine:506 Assigned 15 nodes and 23 links to QSimEngineRunner #0
2019-12-04 17:25:15,152  INFO QNetsimEngine:346 SIMULATION (QNetsimEngine) AT 05:58:30 : #links=0 #nodes=1
2019-12-04 17:25:15,152  INFO QSim:505 SIMULATION (NEW QSim) AT 05:58:30 : #Veh=100 lost=0 simT=0.0s realT=0s; (s/r): 0.0
2019-12-04 17:25:15,153  INFO Gbl:58 used RAM: 140281120B = 136993kB = 133MB  free: 126057184B = 120MB  total: 266338304B = 254MB
2019-12-04 17:25:15,169  INFO QNetsimEngine:346 SIMULATION (QNetsimEngine) AT 06:00:00 : #links=2 #nodes=1
2019-12-04 17:25:15,169  INFO QSim:505 SIMULATION (NEW QSim) AT 06:00:00 : #Veh=100 lost=0 simT=90.0s realT=0s; (s/r): Infinity
2019-12-04 17:25:15,169  INFO Gbl:58 used RAM: 140807456B = 137507kB = 134MB  free: 125530848B = 119MB  total: 266338304B = 254MB
2019-12-04 17:25:15,254  INFO EventsManagerImpl:134  event # 4096
2019-12-04 17:25:15,445  INFO QNetsimEngine:346 SIMULATION (QNetsimEngine) AT 07:00:00 : #links=1 #nodes=0
2019-12-04 17:25:15,446  INFO QSim:505 SIMULATION (NEW QSim) AT 07:00:00 : #Veh=100 lost=0 simT=3690.0s realT=0s; (s/r): Infinity
2019-12-04 17:25:15,446  INFO Gbl:58 used RAM: 143953184B = 140579kB = 137MB  free: 122385120B = 116MB  total: 266338304B = 254MB
2019-12-04 17:25:15,678  INFO QNetsimEngine:346 SIMULATION (QNetsimEngine) AT 08:00:00 : #links=1 #nodes=0
2019-12-04 17:25:15,678  INFO QSim:505 SIMULATION (NEW QSim) AT 08:00:00 : #Veh=5 lost=0 simT=7290.0s realT=0s; (s/r): Infinity
2019-12-04 17:25:15,678  INFO Gbl:58 used RAM: 146050336B = 142627kB = 139MB  free: 120287968B = 114MB  total: 266338304B = 254MB
2019-12-04 17:25:15,877  INFO QNetsimEngine:346 SIMULATION (QNetsimEngine) AT 09:00:00 : #links=1 #nodes=0
2019-12-04 17:25:15,878  INFO QSim:505 SIMULATION (NEW QSim) AT 09:00:00 : #Veh=4 lost=0 simT=10890.0s realT=0s; (s/r): Infinity
2019-12-04 17:25:15,878  INFO Gbl:58 used RAM: 148147488B = 144675kB = 141MB  free: 118190816B = 112MB  total: 266338304B = 254MB
2019-12-04 17:25:16,072  INFO QNetsimEngine:346 SIMULATION (QNetsimEngine) AT 10:00:00 : #links=0 #nodes=0
2019-12-04 17:25:16,073  INFO QSim:505 SIMULATION (NEW QSim) AT 10:00:00 : #Veh=2 lost=0 simT=14490.0s realT=0s; (s/r): Infinity
2019-12-04 17:25:16,073  INFO Gbl:58 used RAM: 150244640B = 146723kB = 143MB  free: 116093664B = 110MB  total: 266338304B = 254MB
2019-12-04 17:25:16,245  INFO QNetsimEngine:346 SIMULATION (QNetsimEngine) AT 11:00:00 : #links=0 #nodes=0
2019-12-04 17:25:16,245  INFO QSim:505 SIMULATION (NEW QSim) AT 11:00:00 : #Veh=1 lost=0 simT=18090.0s realT=1s; (s/r): 18090.0
2019-12-04 17:25:16,245  INFO Gbl:58 used RAM: 152341792B = 148771kB = 145MB  free: 113996512B = 108MB  total: 266338304B = 254MB
2019-12-04 17:25:16,425  INFO QNetsimEngine:346 SIMULATION (QNetsimEngine) AT 12:00:00 : #links=0 #nodes=0
2019-12-04 17:25:16,425  INFO QSim:505 SIMULATION (NEW QSim) AT 12:00:00 : #Veh=1 lost=0 simT=21690.0s realT=1s; (s/r): 21690.0
2019-12-04 17:25:16,425  INFO Gbl:58 used RAM: 153912608B = 150305kB = 146MB  free: 112425696B = 107MB  total: 266338304B = 254MB
2019-12-04 17:25:16,610  INFO QNetsimEngine:346 SIMULATION (QNetsimEngine) AT 13:00:00 : #links=1 #nodes=0
2019-12-04 17:25:16,610  INFO QSim:505 SIMULATION (NEW QSim) AT 13:00:00 : #Veh=1 lost=0 simT=25290.0s realT=1s; (s/r): 25290.0
2019-12-04 17:25:16,610  INFO Gbl:58 used RAM: 156009760B = 152353kB = 148MB  free: 110328544B = 105MB  total: 266338304B = 254MB
2019-12-04 17:25:16,693  INFO AbstractController$9:220 ### ITERATION 1 fires after mobsim event
2019-12-04 17:25:16,693  INFO Gbl:191 Thread performance: Thread=class org.matsim.core.events.SimStepParallelEventsManagerImpl$ProcessEventsRunnable0  cpu-time=0.328125sec
2019-12-04 17:25:16,693  INFO ControlerListenerManagerImpl:248 calling notifyAfterMobsim on org.matsim.analysis.LegTimesControlerListener
2019-12-04 17:25:16,694  INFO LegTimesControlerListener:50 [1] average trip (probably: leg) duration is: 1678 seconds = 00:27:58
2019-12-04 17:25:16,694  INFO ControlerListenerManagerImpl:248 calling notifyAfterMobsim on org.matsim.core.scoring.EventsToActivities$1
2019-12-04 17:25:16,695  INFO ControlerListenerManagerImpl:251 [it.1] all ControlerAfterMobsimListeners called.
2019-12-04 17:25:16,695  INFO AbstractController$4:149 ### ITERATION 1 fires scoring event
2019-12-04 17:25:16,696  INFO ControlerListenerManagerImpl:183 calling notifyScoring on org.matsim.core.scoring.PlansScoringImpl
2019-12-04 17:25:16,696  INFO NewScoreAssignerImpl:36 it: 1 msaStart: null
2019-12-04 17:25:16,697  INFO ControlerListenerManagerImpl:194 [it.1] all ControlerScoringListeners called.
2019-12-04 17:25:16,697  INFO AbstractController$5:157 ### ITERATION 1 fires iteration end event
2019-12-04 17:25:16,697  INFO ControlerListenerManagerImpl:160 calling notifyIterationEnds on org.matsim.core.controler.corelisteners.EventsHandlingImpl
2019-12-04 17:25:16,697  INFO ControlerListenerManagerImpl:160 calling notifyIterationEnds on org.matsim.core.scoring.PlansScoringImpl
2019-12-04 17:25:16,697  INFO ControlerListenerManagerImpl:167 calling notifyIterationEnds on org.matsim.counts.CountsControlerListener
2019-12-04 17:25:16,697  INFO ControlerListenerManagerImpl:167 calling notifyIterationEnds on org.matsim.analysis.ModeStatsControlerListener
2019-12-04 17:25:16,698  INFO ModeStatsControlerListener:155 -- mode share of mode bike = 0.0
2019-12-04 17:25:16,698  INFO ModeStatsControlerListener:155 -- mode share of mode car = 1.0
2019-12-04 17:25:16,698  INFO ModeStatsControlerListener:155 -- mode share of mode other = 0.0
2019-12-04 17:25:16,698  INFO ModeStatsControlerListener:155 -- mode share of mode pt = 0.0
2019-12-04 17:25:16,698  INFO ModeStatsControlerListener:155 -- mode share of mode ride = 0.0
2019-12-04 17:25:16,698  INFO ModeStatsControlerListener:155 -- mode share of mode walk = 0.0
2019-12-04 17:25:16,803  INFO ControlerListenerManagerImpl:167 calling notifyIterationEnds on org.matsim.analysis.ScoreStatsControlerListener
2019-12-04 17:25:16,803  INFO ScoreStatsControlerListener:191 -- avg. score of the executed plan of each agent: 64.84180132563583
2019-12-04 17:25:16,803  INFO ScoreStatsControlerListener:192 -- avg. score of the worst plan of each agent: 64.78366379257605
2019-12-04 17:25:16,804  INFO ScoreStatsControlerListener:193 -- avg. of the avg. plan score per agent: 64.81273255910591
2019-12-04 17:25:16,804  INFO ScoreStatsControlerListener:194 -- avg. score of the best plan of each agent: 64.84180132563583
2019-12-04 17:25:16,904  INFO ControlerListenerManagerImpl:167 calling notifyIterationEnds on org.matsim.analysis.TravelDistanceStatsControlerListener
2019-12-04 17:25:16,904  INFO TravelDistanceStats:128 [TravelDistanceStats] using 2 thread(s).
2019-12-04 17:25:16,905  INFO TravelDistanceStats:141 [TravelDistanceStats] all threads finished.
2019-12-04 17:25:16,905  INFO TravelDistanceStats:161 -- average of the average leg distance per plan (executed plans only): 44850.0
2019-12-04 17:25:16,905  INFO TravelDistanceStats:162 (TravelDistanceStats takes an average over all legs where the simulation reports travelled distances. These are car legs, pt legs,
2019-12-04 17:25:16,905  INFO TravelDistanceStats:163 (and teleported legs whose route contains a distance.)
2019-12-04 17:25:16,992  INFO ControlerListenerManagerImpl:167 calling notifyIterationEnds on org.matsim.analysis.LegHistogramListener
2019-12-04 17:25:16,995  INFO LegHistogramListener:72 number of legs:	201	100%
2019-12-04 17:25:16,995  INFO LegHistogramListener:79 number of car legs:	201	100.0%
2019-12-04 17:25:17,355  INFO ControlerListenerManagerImpl:167 calling notifyIterationEnds on org.matsim.analysis.LinkStatsControlerListener
2019-12-04 17:25:17,355  INFO ControlerListenerManagerImpl:171 [it.1] all ControlerIterationEndsListeners called.
2019-12-04 17:25:17,552  INFO AbstractController:167 ### ITERATION 1 ENDS
2019-12-04 17:25:17,552  INFO AbstractController:168 ###################################################
2019-12-04 17:25:17,552  INFO AbstractController:123 ###################################################
2019-12-04 17:25:17,552  INFO AbstractController:124 ### ITERATION 2 BEGINS
2019-12-04 17:25:17,552  INFO ControlerListenerManagerImpl:145 calling notifyIterationStarts on org.matsim.analysis.LegHistogramListener
2019-12-04 17:25:17,553  INFO ControlerListenerManagerImpl:145 calling notifyIterationStarts on org.matsim.analysis.LinkStatsControlerListener
2019-12-04 17:25:17,553  INFO ControlerListenerManagerImpl:145 calling notifyIterationStarts on org.matsim.core.replanning.ReplanningContextImpl
2019-12-04 17:25:17,553  INFO ControlerListenerManagerImpl:145 calling notifyIterationStarts on org.matsim.core.scoring.ExperiencedPlansServiceImpl$1
2019-12-04 17:25:17,553  INFO ControlerListenerManagerImpl:145 calling notifyIterationStarts on org.matsim.core.scoring.ScoringFunctionsForPopulation$1
2019-12-04 17:25:17,554  INFO ControlerListenerManagerImpl:148 [it.2] all ControlerIterationStartsListeners called.
2019-12-04 17:25:17,554  INFO ControlerListenerManagerImpl:205 calling notifyReplanning on org.matsim.core.controler.corelisteners.PlansReplanningImpl
2019-12-04 17:25:17,554 DEBUG NetworkRoutingProvider:75 requesting network routing module with routingMode=car;	mode=car
2019-12-04 17:25:17,554 DEBUG NetworkRoutingProvider:75 requesting network routing module with routingMode=car;	mode=car
2019-12-04 17:25:17,556  INFO GenericPlanStrategyImpl:125 Plan-Strategy finished, 89 plans handled. Strategy: BestPlanSelector
2019-12-04 17:25:17,556  INFO AbstractMultithreadedModule:141 [PlanRouter] starting 2 threads, handling 11 plans
2019-12-04 17:25:17,557  INFO Counter:70 [PlanRouter] handled plan # 1
2019-12-04 17:25:17,557  INFO Counter:70 [PlanRouter] handled plan # 2
2019-12-04 17:25:17,558  INFO Counter:70 [PlanRouter] handled plan # 4
2019-12-04 17:25:17,559  INFO Counter:70 [PlanRouter] handled plan # 8
2019-12-04 17:25:17,559  INFO AbstractMultithreadedModule:156 [PlanRouter] all 2 threads finished.
2019-12-04 17:25:17,560  INFO GenericPlanStrategyImpl:125 Plan-Strategy finished, 11 plans handled. Strategy: RandomPlanSelector_ReRoute
2019-12-04 17:25:17,560  INFO ControlerListenerManagerImpl:213 [it.2] all ControlerReplanningListeners called.
2019-12-04 17:25:17,560  INFO ControlerListenerManagerImpl:224 calling notifyBeforeMobsim on org.matsim.core.controler.corelisteners.EventsHandlingImpl
2019-12-04 17:25:17,560  INFO EventsManagerImpl:170 resetting Event-Handlers
2019-12-04 17:25:17,560  INFO EventsManagerImpl:177   org.matsim.core.trafficmonitoring.TravelTimeCalculator
2019-12-04 17:25:17,561  INFO EventsManagerImpl:177   org.matsim.core.scoring.EventsToLegsAndActivities
2019-12-04 17:25:17,561  INFO EventsManagerImpl:177   org.matsim.analysis.VolumesAnalyzer
2019-12-04 17:25:17,561  INFO EventsManagerImpl:177   org.matsim.core.events.algorithms.Vehicle2DriverEventHandler
2019-12-04 17:25:17,561  INFO EventsManagerImpl:177   org.matsim.core.scoring.ScoringFunctionsForPopulation
2019-12-04 17:25:17,561  INFO EventsManagerImpl:177   org.matsim.analysis.LegHistogram
[...]
2019-12-04 17:25:32,195  INFO EventsManagerImpl:156 
2019-12-04 17:25:32,195  INFO EventsManagerImpl:144 adding Event-Handler: org.matsim.core.events.algorithms.EventWriterXML
2019-12-04 17:25:32,195  INFO EventsManagerImpl:148   org.matsim.core.events.algorithms.EventWriter
2019-12-04 17:25:32,195  INFO EventsManagerImpl:148   org.matsim.core.events.handler.BasicEventHandler
2019-12-04 17:25:32,195  INFO EventsManagerImpl:207     > org.matsim.api.core.v01.events.Event
2019-12-04 17:25:32,196  INFO EventsManagerImpl:156 
2019-12-04 17:25:32,196  INFO ControlerListenerManagerImpl:224 calling notifyBeforeMobsim on org.matsim.core.controler.corelisteners.PlansDumpingImpl
2019-12-04 17:25:32,196  INFO PlansDumpingImpl:76 dumping plans...
2019-12-04 17:25:32,197  INFO Counter:70 [PopulationWriter] dumped person # 1
2019-12-04 17:25:32,197  INFO Counter:70 [PopulationWriter] dumped person # 2
2019-12-04 17:25:32,197  INFO Counter:70 [PopulationWriter] dumped person # 4
2019-12-04 17:25:32,198  INFO Counter:70 [PopulationWriter] dumped person # 8
2019-12-04 17:25:32,198  INFO Counter:70 [PopulationWriter] dumped person # 16
2019-12-04 17:25:32,199  INFO Counter:70 [PopulationWriter] dumped person # 32
2019-12-04 17:25:32,200  INFO Counter:70 [PopulationWriter] dumped person # 64
2019-12-04 17:25:32,202  INFO PopulationWriter:139 Population written to: ./output/ITERS/it.10/10.plans.xml.gz
2019-12-04 17:25:32,203  INFO Counter:76 [PopulationWriter] dumped person # 100
2019-12-04 17:25:32,204  INFO PlansDumpingImpl:93 finished plans dump.
2019-12-04 17:25:32,204  INFO ControlerListenerManagerImpl:229 calling notifyBeforeMobsim on org.matsim.core.population.VspPlansCleaner
2019-12-04 17:25:32,204  INFO ControlerListenerManagerImpl:232 [it.10] all ControlerBeforeMobsimListeners called.
2019-12-04 17:25:32,204 DEBUG NetworkRoutingProvider:75 requesting network routing module with routingMode=car;	mode=car
2019-12-04 17:25:32,205 DEBUG NetworkRoutingProvider:75 requesting network routing module with routingMode=car;	mode=car
2019-12-04 17:25:32,205  INFO Counter:70 [PersonPrepareForSim] handled person # 1
2019-12-04 17:25:32,206  INFO Counter:70 [PersonPrepareForSim] handled person # 2
2019-12-04 17:25:32,206  INFO Counter:70 [PersonPrepareForSim] handled person # 8
2019-12-04 17:25:32,206  INFO Counter:70 [PersonPrepareForSim] handled person # 4
2019-12-04 17:25:32,206  INFO Counter:70 [PersonPrepareForSim] handled person # 16
2019-12-04 17:25:32,206  INFO Counter:70 [PersonPrepareForSim] handled person # 32
2019-12-04 17:25:32,206  INFO Counter:70 [PersonPrepareForSim] handled person # 64
2019-12-04 17:25:32,206  INFO Counter:76 [PersonPrepareForSim] handled person # 100
2019-12-04 17:25:32,218  INFO MobsimListenerManager:49 calling addQueueSimulationListener
2019-12-04 17:25:32,218  INFO MobsimListenerManager:53   assigned class org.matsim.core.mobsim.framework.listeners.MobsimListener to interface org.matsim.core.mobsim.framework.listeners.MobsimAfterSimStepListener
2019-12-04 17:25:32,218  INFO MobsimListenerManager:53   assigned class org.matsim.core.mobsim.framework.listeners.MobsimListener to interface org.matsim.vis.snapshotwriters.SnapshotWriterManager
2019-12-04 17:25:32,218  INFO MobsimListenerManager:53   assigned class org.matsim.core.mobsim.framework.listeners.MobsimListener to interface org.matsim.core.mobsim.framework.listeners.MobsimBeforeCleanupListener
2019-12-04 17:25:32,219  INFO MobsimListenerManager:53   assigned class org.matsim.core.mobsim.framework.listeners.MobsimListener to interface org.matsim.core.mobsim.framework.listeners.MobsimInitializedListener
2019-12-04 17:25:32,219  INFO MobsimListenerManager:53   assigned class org.matsim.core.mobsim.framework.listeners.MobsimListener to interface org.matsim.core.mobsim.framework.listeners.MobsimListener
2019-12-04 17:25:32,219  INFO QSimProvider:111 Added MobsimEngine class org.matsim.core.mobsim.qsim.ActivityEngine
2019-12-04 17:25:32,220  INFO QSimProvider:117 Added Activityhandler class org.matsim.core.mobsim.qsim.ActivityEngine
2019-12-04 17:25:32,220  INFO QSimProvider:123 Added DepartureHandler class org.matsim.core.mobsim.qsim.qnetsimengine.VehicularDepartureHandler
2019-12-04 17:25:32,220  INFO QSimProvider:111 Added MobsimEngine class org.matsim.core.mobsim.qsim.qnetsimengine.QNetsimEngine
2019-12-04 17:25:32,220  INFO QSimProvider:111 Added MobsimEngine class org.matsim.core.mobsim.qsim.DefaultTeleportationEngine
2019-12-04 17:25:32,220  INFO QSimProvider:123 Added DepartureHandler class org.matsim.core.mobsim.qsim.DefaultTeleportationEngine
2019-12-04 17:25:32,220  INFO QSimProvider:129 Added AgentSource class org.matsim.core.mobsim.qsim.agents.PopulationAgentSource
2019-12-04 17:25:32,220  INFO MobsimListenerManager:49 calling addQueueSimulationListener
2019-12-04 17:25:32,221  INFO MobsimListenerManager:53   assigned class org.matsim.core.mobsim.framework.listeners.MobsimListener to interface org.matsim.core.mobsim.qsim.messagequeueengine.MessageQueueEngine
2019-12-04 17:25:32,221  INFO MobsimListenerManager:53   assigned class org.matsim.core.mobsim.framework.listeners.MobsimListener to interface org.matsim.core.mobsim.framework.listeners.MobsimBeforeSimStepListener
2019-12-04 17:25:32,221  INFO MobsimListenerManager:53   assigned class org.matsim.core.mobsim.framework.listeners.MobsimListener to interface org.matsim.core.mobsim.framework.listeners.MobsimListener
2019-12-04 17:25:32,221  INFO QSimProvider:135 Added MobsimListener class org.matsim.core.mobsim.qsim.messagequeueengine.MessageQueueEngine
2019-12-04 17:25:32,222  INFO QNetsimEngine:506 Assigned 15 nodes and 23 links to QSimEngineRunner #0
2019-12-04 17:25:32,222  INFO QNetsimEngine:346 SIMULATION (QNetsimEngine) AT 05:58:30 : #links=0 #nodes=1
2019-12-04 17:25:32,223  INFO QSim:505 SIMULATION (NEW QSim) AT 05:58:30 : #Veh=100 lost=0 simT=0.0s realT=0s; (s/r): 0.0
2019-12-04 17:25:32,223  INFO Gbl:58 used RAM: 153189792B = 149599kB = 146MB  free: 113148512B = 107MB  total: 266338304B = 254MB
2019-12-04 17:25:32,231  INFO QNetsimEngine:346 SIMULATION (QNetsimEngine) AT 06:00:00 : #links=2 #nodes=1
2019-12-04 17:25:32,231  INFO QSim:505 SIMULATION (NEW QSim) AT 06:00:00 : #Veh=100 lost=0 simT=90.0s realT=0s; (s/r): Infinity
2019-12-04 17:25:32,231  INFO Gbl:58 used RAM: 153714080B = 150111kB = 146MB  free: 112624224B = 107MB  total: 266338304B = 254MB
2019-12-04 17:25:32,438  INFO QNetsimEngine:346 SIMULATION (QNetsimEngine) AT 07:00:00 : #links=1 #nodes=0
2019-12-04 17:25:32,438  INFO QSim:505 SIMULATION (NEW QSim) AT 07:00:00 : #Veh=100 lost=0 simT=3690.0s realT=0s; (s/r): Infinity
2019-12-04 17:25:32,439  INFO Gbl:58 used RAM: 156859808B = 153183kB = 149MB  free: 109478496B = 104MB  total: 266338304B = 254MB
2019-12-04 17:25:32,636  INFO QNetsimEngine:346 SIMULATION (QNetsimEngine) AT 08:00:00 : #links=1 #nodes=0
2019-12-04 17:25:32,636  INFO QSim:505 SIMULATION (NEW QSim) AT 08:00:00 : #Veh=5 lost=0 simT=7290.0s realT=0s; (s/r): Infinity
2019-12-04 17:25:32,636  INFO Gbl:58 used RAM: 159479200B = 155741kB = 152MB  free: 106859104B = 101MB  total: 266338304B = 254MB
2019-12-04 17:25:32,822  INFO QNetsimEngine:346 SIMULATION (QNetsimEngine) AT 09:00:00 : #links=1 #nodes=0
2019-12-04 17:25:32,822  INFO QSim:505 SIMULATION (NEW QSim) AT 09:00:00 : #Veh=4 lost=0 simT=10890.0s realT=0s; (s/r): Infinity
2019-12-04 17:25:32,822  INFO Gbl:58 used RAM: 161576352B = 157789kB = 154MB  free: 104761952B = 99MB  total: 266338304B = 254MB
2019-12-04 17:25:33,013  INFO QNetsimEngine:346 SIMULATION (QNetsimEngine) AT 10:00:00 : #links=1 #nodes=0
2019-12-04 17:25:33,013  INFO QSim:505 SIMULATION (NEW QSim) AT 10:00:00 : #Veh=2 lost=0 simT=14490.0s realT=0s; (s/r): Infinity
2019-12-04 17:25:33,013  INFO Gbl:58 used RAM: 163673504B = 159837kB = 156MB  free: 102664800B = 97MB  total: 266338304B = 254MB
2019-12-04 17:25:33,195  INFO QNetsimEngine:346 SIMULATION (QNetsimEngine) AT 11:00:00 : #links=0 #nodes=0
2019-12-04 17:25:33,195  INFO QSim:505 SIMULATION (NEW QSim) AT 11:00:00 : #Veh=1 lost=0 simT=18090.0s realT=0s; (s/r): Infinity
2019-12-04 17:25:33,195  INFO Gbl:58 used RAM: 166296992B = 162399kB = 158MB  free: 100041312B = 95MB  total: 266338304B = 254MB
2019-12-04 17:25:33,374  INFO QNetsimEngine:346 SIMULATION (QNetsimEngine) AT 12:00:00 : #links=0 #nodes=0
2019-12-04 17:25:33,374  INFO QSim:505 SIMULATION (NEW QSim) AT 12:00:00 : #Veh=1 lost=0 simT=21690.0s realT=1s; (s/r): 21690.0
2019-12-04 17:25:33,374  INFO Gbl:58 used RAM: 167867808B = 163933kB = 160MB  free: 98470496B = 93MB  total: 266338304B = 254MB
2019-12-04 17:25:33,556  INFO QNetsimEngine:346 SIMULATION (QNetsimEngine) AT 13:00:00 : #links=1 #nodes=0
2019-12-04 17:25:33,556  INFO QSim:505 SIMULATION (NEW QSim) AT 13:00:00 : #Veh=1 lost=0 simT=25290.0s realT=1s; (s/r): 25290.0
2019-12-04 17:25:33,556  INFO Gbl:58 used RAM: 169964960B = 165981kB = 162MB  free: 96373344B = 91MB  total: 266338304B = 254MB
2019-12-04 17:25:33,636  INFO Gbl:191 Thread performance: Thread=class org.matsim.core.events.SimStepParallelEventsManagerImpl$ProcessEventsRunnable0  cpu-time=0.28125sec
2019-12-04 17:25:33,636  INFO AbstractController$9:220 ### ITERATION 10 fires after mobsim event
2019-12-04 17:25:33,636  INFO ControlerListenerManagerImpl:248 calling notifyAfterMobsim on org.matsim.analysis.LegTimesControlerListener
2019-12-04 17:25:33,637  INFO LegTimesControlerListener:50 [10] average trip (probably: leg) duration is: 1628 seconds = 00:27:08
2019-12-04 17:25:33,637  INFO ControlerListenerManagerImpl:248 calling notifyAfterMobsim on org.matsim.core.scoring.EventsToActivities$1
2019-12-04 17:25:33,637  INFO ControlerListenerManagerImpl:251 [it.10] all ControlerAfterMobsimListeners called.
2019-12-04 17:25:33,637  INFO AbstractController$4:149 ### ITERATION 10 fires scoring event
2019-12-04 17:25:33,637  INFO ControlerListenerManagerImpl:183 calling notifyScoring on org.matsim.core.scoring.PlansScoringImpl
2019-12-04 17:25:33,638  INFO NewScoreAssignerImpl:36 it: 10 msaStart: null
2019-12-04 17:25:33,638  INFO ControlerListenerManagerImpl:194 [it.10] all ControlerScoringListeners called.
2019-12-04 17:25:33,638  INFO AbstractController$5:157 ### ITERATION 10 fires iteration end event
2019-12-04 17:25:33,638  INFO ControlerListenerManagerImpl:160 calling notifyIterationEnds on org.matsim.core.controler.corelisteners.EventsHandlingImpl
2019-12-04 17:25:33,641  INFO EventsManagerImpl:161 removing Event-Handler: org.matsim.core.events.algorithms.EventWriterXML
2019-12-04 17:25:33,641  INFO EventsManagerImpl:161 removing Event-Handler: org.matsim.core.events.algorithms.EventWriterXML
2019-12-04 17:25:33,641  INFO ControlerListenerManagerImpl:160 calling notifyIterationEnds on org.matsim.core.scoring.PlansScoringImpl
2019-12-04 17:25:33,641  INFO ControlerListenerManagerImpl:167 calling notifyIterationEnds on org.matsim.counts.CountsControlerListener
2019-12-04 17:25:33,645  INFO CountSimComparisonTableWriter:93 Writing CountsSimComparison to ./output/ITERS/it.10/10.countscompare.txt
2019-12-04 17:25:33,646  INFO CountSimComparisonTableWriter:134 Writing 'average weekday traffic volume' to ./output/ITERS/it.10/10.countscompareAWTV.txt
2019-12-04 17:25:33,647  INFO ControlerListenerManagerImpl:167 calling notifyIterationEnds on org.matsim.analysis.ModeStatsControlerListener
2019-12-04 17:25:33,647  INFO ModeStatsControlerListener:155 -- mode share of mode bike = 0.0
2019-12-04 17:25:33,648  INFO ModeStatsControlerListener:155 -- mode share of mode car = 1.0
2019-12-04 17:25:33,648  INFO ModeStatsControlerListener:155 -- mode share of mode other = 0.0
2019-12-04 17:25:33,648  INFO ModeStatsControlerListener:155 -- mode share of mode pt = 0.0
2019-12-04 17:25:33,648  INFO ModeStatsControlerListener:155 -- mode share of mode ride = 0.0
2019-12-04 17:25:33,648  INFO ModeStatsControlerListener:155 -- mode share of mode walk = 0.0
2019-12-04 17:25:33,680  INFO ControlerListenerManagerImpl:167 calling notifyIterationEnds on org.matsim.analysis.ScoreStatsControlerListener
2019-12-04 17:25:33,680  INFO ScoreStatsControlerListener:191 -- avg. score of the executed plan of each agent: 65.0866398879971
2019-12-04 17:25:33,680  INFO ScoreStatsControlerListener:192 -- avg. score of the worst plan of each agent: 64.91592263882357
2019-12-04 17:25:33,680  INFO ScoreStatsControlerListener:193 -- avg. of the avg. plan score per agent: 65.01554492675089
2019-12-04 17:25:33,680  INFO ScoreStatsControlerListener:194 -- avg. score of the best plan of each agent: 65.09045249606102
2019-12-04 17:25:33,711  INFO ControlerListenerManagerImpl:167 calling notifyIterationEnds on org.matsim.analysis.TravelDistanceStatsControlerListener
2019-12-04 17:25:33,711  INFO TravelDistanceStats:128 [TravelDistanceStats] using 2 thread(s).
2019-12-04 17:25:33,712  INFO TravelDistanceStats:141 [TravelDistanceStats] all threads finished.
2019-12-04 17:25:33,712  INFO TravelDistanceStats:161 -- average of the average leg distance per plan (executed plans only): 44850.0
2019-12-04 17:25:33,712  INFO TravelDistanceStats:162 (TravelDistanceStats takes an average over all legs where the simulation reports travelled distances. These are car legs, pt legs,
2019-12-04 17:25:33,712  INFO TravelDistanceStats:163 (and teleported legs whose route contains a distance.)
2019-12-04 17:25:33,745  INFO ControlerListenerManagerImpl:167 calling notifyIterationEnds on org.matsim.analysis.LegHistogramListener
2019-12-04 17:25:33,746  INFO LegHistogramListener:72 number of legs:	201	100%
2019-12-04 17:25:33,747  INFO LegHistogramListener:79 number of car legs:	201	100.0%
2019-12-04 17:25:33,841  INFO ControlerListenerManagerImpl:167 calling notifyIterationEnds on org.matsim.analysis.LinkStatsControlerListener
2019-12-04 17:25:33,844  INFO ControlerListenerManagerImpl:171 [it.10] all ControlerIterationEndsListeners called.
2019-12-04 17:25:33,903  INFO AbstractController:167 ### ITERATION 10 ENDS
2019-12-04 17:25:33,903  INFO AbstractController:168 ###################################################
2019-12-04 17:25:33,903  INFO MatsimRuntimeModifications:58 S H U T D O W N   ---   start shutdown.
2019-12-04 17:25:33,903  INFO ControlerListenerManagerImpl:121 calling notifyShutdown on org.matsim.core.controler.corelisteners.EventsHandlingImpl
2019-12-04 17:25:33,903  INFO ControlerListenerManagerImpl:121 calling notifyShutdown on org.matsim.core.controler.corelisteners.DumpDataAtEndImpl
2019-12-04 17:25:33,904  INFO Counter:70 [PopulationWriter] dumped person # 1
2019-12-04 17:25:33,904  INFO Counter:70 [PopulationWriter] dumped person # 2
2019-12-04 17:25:33,904  INFO Counter:70 [PopulationWriter] dumped person # 4
2019-12-04 17:25:33,904  INFO Counter:70 [PopulationWriter] dumped person # 8
2019-12-04 17:25:33,905  INFO Counter:70 [PopulationWriter] dumped person # 16
2019-12-04 17:25:33,905  INFO Counter:70 [PopulationWriter] dumped person # 32
2019-12-04 17:25:33,906  INFO Counter:70 [PopulationWriter] dumped person # 64
2019-12-04 17:25:33,908  INFO PopulationWriter:139 Population written to: ./output/output_plans.xml.gz
2019-12-04 17:25:33,909  INFO Counter:76 [PopulationWriter] dumped person # 100
2019-12-04 17:25:33,911  INFO NetworkWriter:69 Writing network to file: ./output/output_network.xml.gz...
2019-12-04 17:25:33,913  INFO NetworkWriter:72 done.
2019-12-04 17:25:33,918  INFO Config:572 setting context to [file:/C:/Users/adeni/Documents/GitHub/matsim-example-project/scenarios/equil/]
2019-12-04 17:25:33,921  INFO Config:572 setting context to [file:/C:/Users/adeni/Documents/GitHub/matsim-example-project/scenarios/equil/]
2019-12-04 17:25:33,924  INFO Config:572 setting context to [file:/C:/Users/adeni/Documents/GitHub/matsim-example-project/scenarios/equil/]
2019-12-04 17:25:33,926  INFO Config:572 setting context to [file:/C:/Users/adeni/Documents/GitHub/matsim-example-project/scenarios/equil/]
2019-12-04 17:25:33,934  INFO Config:572 setting context to [file:/C:/Users/adeni/Documents/GitHub/matsim-example-project/scenarios/equil/]
2019-12-04 17:25:33,936  INFO Config:572 setting context to [file:/C:/Users/adeni/Documents/GitHub/matsim-example-project/scenarios/equil/]
2019-12-04 17:25:33,938  INFO Config:572 setting context to [file:/C:/Users/adeni/Documents/GitHub/matsim-example-project/scenarios/equil/]
2019-12-04 17:25:33,941  INFO Config:572 setting context to [file:/C:/Users/adeni/Documents/GitHub/matsim-example-project/scenarios/equil/]
2019-12-04 17:25:33,945  INFO Config:572 setting context to [file:/C:/Users/adeni/Documents/GitHub/matsim-example-project/scenarios/equil/]
2019-12-04 17:25:33,948  INFO Config:572 setting context to [file:/C:/Users/adeni/Documents/GitHub/matsim-example-project/scenarios/equil/]
2019-12-04 17:25:33,951  INFO Config:572 setting context to [file:/C:/Users/adeni/Documents/GitHub/matsim-example-project/scenarios/equil/]
2019-12-04 17:25:33,953  INFO Config:572 setting context to [file:/C:/Users/adeni/Documents/GitHub/matsim-example-project/scenarios/equil/]
2019-12-04 17:25:33,959  INFO Config:572 setting context to [file:/C:/Users/adeni/Documents/GitHub/matsim-example-project/scenarios/equil/]
2019-12-04 17:25:33,961  INFO Config:572 setting context to [file:/C:/Users/adeni/Documents/GitHub/matsim-example-project/scenarios/equil/]
2019-12-04 17:25:33,964  INFO Config:572 setting context to [file:/C:/Users/adeni/Documents/GitHub/matsim-example-project/scenarios/equil/]
2019-12-04 17:25:33,965  INFO Config:572 setting context to [file:/C:/Users/adeni/Documents/GitHub/matsim-example-project/scenarios/equil/]
2019-12-04 17:25:33,972  INFO Config:572 setting context to [file:/C:/Users/adeni/Documents/GitHub/matsim-example-project/scenarios/equil/]
2019-12-04 17:25:33,974  INFO Config:572 setting context to [file:/C:/Users/adeni/Documents/GitHub/matsim-example-project/scenarios/equil/]
2019-12-04 17:25:33,984  INFO Config:572 setting context to [file:/C:/Users/adeni/Documents/GitHub/matsim-example-project/scenarios/equil/]
2019-12-04 17:25:33,986  INFO Config:572 setting context to [file:/C:/Users/adeni/Documents/GitHub/matsim-example-project/scenarios/equil/]
2019-12-04 17:25:33,987  INFO Config:572 setting context to [file:/C:/Users/adeni/Documents/GitHub/matsim-example-project/scenarios/equil/]
2019-12-04 17:25:33,989  INFO Config:572 setting context to [file:/C:/Users/adeni/Documents/GitHub/matsim-example-project/scenarios/equil/]
2019-12-04 17:25:33,992  INFO Config:572 setting context to [file:/C:/Users/adeni/Documents/GitHub/matsim-example-project/scenarios/equil/]
2019-12-04 17:25:33,995  INFO Config:572 setting context to [file:/C:/Users/adeni/Documents/GitHub/matsim-example-project/scenarios/equil/]
2019-12-04 17:25:34,000  INFO VehicleWriterV1:52 about to write vehicles to: ./output/output_vehicles.xml.gz
2019-12-04 17:25:34,003  INFO HouseholdsWriterV10:66 about to write  households to: ./output/output_households.xml.gz
2019-12-04 17:25:34,004  INFO Counter:76 [HouseholdsWriter] wrote household # 0
2019-12-04 17:25:34,008  INFO LanesWriter:72 about to write lanes to: ./output/output_lanes.xml.gz
2019-12-04 17:25:34,213  INFO ControlerListenerManagerImpl:126 calling notifyShutdown on org.matsim.analysis.ModeStatsControlerListener
2019-12-04 17:25:34,213  INFO ControlerListenerManagerImpl:126 calling notifyShutdown on org.matsim.analysis.ScoreStatsControlerListener
2019-12-04 17:25:34,214  INFO ControlerListenerManagerImpl:126 calling notifyShutdown on org.matsim.analysis.TravelDistanceStatsControlerListener
2019-12-04 17:25:34,214  INFO ControlerListenerManagerImpl:129 all ControlerShutdownListeners called.
2019-12-04 17:25:34,214  INFO MatsimRuntimeModifications:81 S H U T D O W N   ---   shutdown completed.
2019-12-04 17:25:34,214  INFO OutputDirectoryLogging:146 closing the logfile, i.e. messages sent to the logger after this message are not written to the logfile.
