2019-09-18 08:59:50,128  INFO Gbl:63 JVM: 11; Oracle Corporation; mixed mode; 64-bit
2019-09-18 08:59:50,128  INFO Gbl:67 OS: Windows 10; 10.0; amd64
2019-09-18 08:59:50,129  INFO Gbl:70 CPU cores: 8
2019-09-18 08:59:50,129  INFO Gbl:71 max. Memory: 4058.0MB (4255121408B)
2019-09-18 08:59:50,131  INFO Gbl:109 MATSim-Build: r92f5a963d96c1378d104c07359ace3469f91ad77 (2019-04-10 11:10:17)
2019-09-18 08:59:50,136  INFO ControlerListenerManagerImpl:107 calling notifyStartup on org.matsim.counts.CountsControlerListener
2019-09-18 08:59:50,136  INFO ControlerListenerManagerImpl:107 calling notifyStartup on org.matsim.analysis.ModeStatsControlerListener
2019-09-18 08:59:50,138 DEBUG NetworkRoutingProvider:75 requesting network routing module with routingMode=car;	mode=car
2019-09-18 08:59:50,140  INFO ControlerListenerManagerImpl:107 calling notifyStartup on org.matsim.analysis.ScoreStatsControlerListener
2019-09-18 08:59:50,141  INFO ControlerListenerManagerImpl:110 all ControlerStartupListeners called.
2019-09-18 08:59:50,141  INFO ControlerUtils:58 config dump before iterations start
2019-09-18 08:59:50,185  INFO ControlerUtils:62 

<?xml version="1.0" encoding="UTF-8"?>
<!DOCTYPE config SYSTEM "http://www.matsim.org/files/dtd/config_v2.dtd">
<config>
	<module name="JDEQSim" >
		<param name="carSize" value="7.5" />
		<param name="endTime" value="undefined" />
		<param name="flowCapacityFactor" value="1.0" />
		<param name="gapTravelSpeed" value="15.0" />
		<param name="minimumInFlowCapacity" value="1800.0" />
		<param name="squeezeTime" value="1800.0" />
		<param name="storageCapacityFactor" value="1.0" />
	</module>
	<module name="TimeAllocationMutator" >
		<!-- Default:true; Defines whether time mutation changes an activity's duration. -->
		<param name="mutationAffectsDuration" value="true" />
		<!-- Default:1800.0; Defines how many seconds a time mutation can maximally shift a time. -->
		<param name="mutationRange" value="1800.0" />
		<!-- false; Use individual settings for each subpopulation. If enabled but no settings are found, regular settings are uses as fallback. -->
		<param name="useIndividualSettingsForSubpopulations" value="false" />
	</module>
	<module name="changeMode" >
		<!-- Defines whether car availability is considered be considered or not. An agent has no car only if it has no license, or never access to a car. Default: true -->
		<param name="ignoreCarAvailability" value="true" />
		<!-- Defines the mode switch behavior. Possible values [fromAllModesToSpecifiedModes, fromSpecifiedModesToSpecifiedModes] Default: fromSpecifiedModesToSpecifiedModes. -->
		<param name="modeSwitchBehavior" value="fromSpecifiedModesToSpecifiedModes" />
		<!-- Defines all the modes available, including chain-based modes, seperated by commas -->
		<param name="modes" value="car,pt" />
	</module>
	<module name="controler" >
		<!-- Sets whether graphs showing some analyses should automatically be generated during the simulation. The generation of graphs usually takes a small amount of time that does not have any weight in big simulations, but add a significant overhead in smaller runs or in test cases where the graphical output is not even requested. -->
		<param name="createGraphs" value="true" />
		<!-- true if at the end of a run, plans, network, config etc should be dumped to a file -->
		<param name="dumpDataAtEnd" value="true" />
		<!-- Default=false. If enabled, the router takes travel times needed for turning moves into account. Cannot be used if the (Fast)AStarLandmarks routing or TravelTimeCalculator.separateModes is enabled. -->
		<param name="enableLinkToLinkRouting" value="false" />
		<!-- Default=xml; Specifies the file format for writing events. Currently supported: xml.
		Multiple values can be specified separated by commas (','). -->
		<param name="eventsFileFormat" value="xml" />
		<!-- Default=0;  -->
		<param name="firstIteration" value="0" />
		<!-- Default=1000;  -->
		<param name="lastIteration" value="10" />
		<!-- Defines which mobility simulation will be used. Currently supported: qsim JDEQSim 
		Depending on the chosen mobsim, you'll have to add additional config modules to configure the corresponding mobsim.
		For 'qsim', add a module 'qsim' to the config. -->
		<param name="mobsim" value="qsim" />
		<param name="outputDirectory" value="./output" />
		<!-- Possible values: failIfDirectoryExists, overwriteExistingFiles, deleteDirectoryIfExists -->
		<param name="overwriteFiles" value="failIfDirectoryExists" />
		<!-- The type of routing (least cost path) algorithm used, may have the values: Dijkstra, FastDijkstra, AStarLandmarks or FastAStarLandmarks -->
		<param name="routingAlgorithmType" value="AStarLandmarks" />
		<!-- An identifier for the current run which is used as prefix for output files and mentioned in output xml files etc. -->
		<param name="runId" value="null" />
		<!-- Comma-separated list of visualizer output file formats. `transims', `googleearth', and `otfvis'. -->
		<param name="snapshotFormat" value="" />
		<!-- iterationNumber % writeEventsInterval == 0 defines in which iterations events are written to a file. `0' disables events writing completely. -->
		<param name="writeEventsInterval" value="10" />
		<!-- iterationNumber % writePlansInterval == 0 defines (hopefully) in which iterations plans are written to a file. `0' disables plans writing completely.  Some plans in early iterations are always written -->
		<param name="writePlansInterval" value="10" />
		<!-- iterationNumber % writeSnapshotsInterval == 0 defines in which iterations snapshots are written to a file. `0' disables snapshots writing completely -->
		<param name="writeSnapshotsInterval" value="1" />
	</module>
	<module name="counts" >
		<!-- Transport modes that will be respected for the counts comparison. 'car' is default, which includes also bussed from the pt simulation module. Use this parameter in combination with 'filterModes' = true! -->
		<param name="analyzedModes" value="car" />
		<!-- Specifies over how many iterations the link volumes should be averaged that are used for the counts comparison. Use 1 or 0 to only use the link volumes of a single iteration. This values cannot be larger than the value specified for writeCountsInterval -->
		<param name="averageCountsOverIterations" value="5" />
		<!-- factor by which to re-scale the simulated values.  necessary when simulation runs with something different from 100%.  needs to be adapted manually -->
		<param name="countsScaleFactor" value="1.0" />
		<!-- distance to distanceFilterCenterNode to include counting stations. The unit of distance is the Euclidean distance implied by the coordinate system -->
		<param name="distanceFilter" value="null" />
		<!-- node id for center node of distance filter -->
		<param name="distanceFilterCenterNode" value="null" />
		<!-- If true, link counts from legs performed on modes not included in the 'analyzedModes' parameter are ignored. -->
		<param name="filterModes" value="false" />
		<!-- The Coordinates Reference System in which the coordinates are expressed in the input file. At import, the coordinates will be converted to the coordinate system defined in "global", and willbe converted back at export. If not specified, no conversion happens. -->
		<param name="inputCRS" value="null" />
		<!-- input file name to counts package -->
		<param name="inputCountsFile" value="null" />
		<!-- possible values: `html', `kml', `txt', `all' -->
		<param name="outputformat" value="txt" />
		<!-- Specifies how often the counts comparison should be calculated and written. -->
		<param name="writeCountsInterval" value="10" />
	</module>
	<module name="facilities" >
		<!-- This defines how facilities should be created. Possible values: none fromFile setInScenario onePerActivityLinkInPlansFile onePerActivityLocationInPlansFile  -->
		<param name="facilitiesSource" value="none" />
		<!-- A prefix to be used for auto-generated IDs. -->
		<param name="idPrefix" value="autogen_" />
		<!-- The Coordinates Reference System in which the coordinates are expressed in the input file. At import, the coordinates will be converted to the coordinate system defined in "global", and willbe converted back at export. If not specified, no conversion happens. -->
		<param name="inputCRS" value="null" />
		<param name="inputFacilitiesFile" value="null" />
		<param name="inputFacilityAttributesFile" value="null" />
	</module>
	<module name="global" >
		<param name="coordinateSystem" value="Atlantis" />
		<param name="insistingOnDeprecatedConfigVersion" value="true" />
		<!-- "global" number of threads.  This number is used, e.g., for replanning, but NOT in the mobsim.  This can typically be set to as many cores as you have available, or possibly even slightly more. -->
		<param name="numberOfThreads" value="2" />
		<param name="randomSeed" value="4711" />
	</module>
	<module name="households" >
		<param name="inputFile" value="null" />
		<param name="inputHouseholdAttributesFile" value="null" />
	</module>
	<module name="linkStats" >
		<!-- Specifies over how many iterations the link volumes should be averaged that are used for the link statistics. Use 1 or 0 to only use the link volumes of a single iteration. This values cannot be larger than the value specified for writeLinkStatsInterval -->
		<param name="averageLinkStatsOverIterations" value="5" />
		<!-- Specifies how often the link stats should be calculated and written. Use 0 to disable the generation of link stats. -->
		<param name="writeLinkStatsInterval" value="10" />
	</module>
	<module name="network" >
		<!-- The Coordinates Reference System in which the coordinates are expressed in the input file. At import, the coordinates will be converted to the coordinate system defined in "global", and willbe converted back at export. If not specified, no conversion happens. -->
		<param name="inputCRS" value="null" />
		<param name="inputChangeEventsFile" value="null" />
		<param name="inputNetworkFile" value="network.xml" />
		<param name="laneDefinitionsFile" value="null" />
		<param name="timeVariantNetwork" value="false" />
	</module>
	<module name="parallelEventHandling" >
		<!-- Estimated number of events during mobsim run. An optional optimization hint for the framework. -->
		<param name="estimatedNumberOfEvents" value="null" />
		<!-- Number of threads for parallel events handler. _null_ means the framework decides by itself. 0 is currently not possible. -->
		<param name="numberOfThreads" value="null" />
		<!-- If enabled, each event handler is assigned to its own thread. Note that enabling this feature disabled the numberOfThreads option! This feature is still experimental! -->
		<param name="oneThreadPerHandler" value="false" />
		<!-- If enabled, it is ensured that all events that are created during a time step of the mobility simulation are processed before the next time step is simulated. E.g. neccessary when within-day replanning is used. -->
		<param name="synchronizeOnSimSteps" value="true" />
	</module>
	<module name="planCalcScore" >
		<!-- logit model scale parameter. default: 1.  Has name and default value for historical reasons (see Bryan Raney's phd thesis). -->
		<param name="BrainExpBeta" value="2.0" />
		<param name="PathSizeLogitBeta" value="1.0" />
		<!-- fraction of iterations at which MSA score averaging is started. The matsim theory department suggests to use this together with switching off choice set innovation (where a similar switch exists), but it has not been tested yet. -->
		<param name="fractionOfIterationsToStartScoreMSA" value="null" />
		<!-- new_score = (1-learningRate)*old_score + learningRate * score_from_mobsim.  learning rates close to zero emulate score averaging, but slow down initial convergence -->
		<param name="learningRate" value="1.0" />
		<!-- There used to be a plateau between duration=0 and duration=zeroUtilityDuration. This caused durations to evolve to zero once they were below zeroUtilityDuration, causing problems.  Only use this switch if you need to be backwards compatible with some old results.  (changed nov'13) -->
		<param name="usingOldScoringBelowZeroUtilityDuration" value="false" />
		<!-- write a plans file in each iteration directory which contains what each agent actually did, and the score it received. -->
		<param name="writeExperiencedPlans" value="false" />
		<parameterset type="scoringParameters" >
			<param name="earlyDeparture" value="-0.0" />
			<param name="lateArrival" value="-18.0" />
			<param name="marginalUtilityOfMoney" value="1.0" />
			<param name="performing" value="6.0" />
			<param name="subpopulation" value="null" />
			<param name="utilityOfLineSwitch" value="-1.0" />
			<param name="waiting" value="-0.0" />
			<param name="waitingPt" value="-6.0" />
			<parameterset type="activityParams" >
				<param name="activityType" value="dummy" />
				<param name="closingTime" value="undefined" />
				<param name="earliestEndTime" value="undefined" />
				<param name="latestStartTime" value="undefined" />
				<param name="minimalDuration" value="undefined" />
				<param name="openingTime" value="undefined" />
				<param name="priority" value="1.0" />
				<param name="scoringThisActivityAtAll" value="true" />
				<!-- typical duration of activity.  needs to be defined and non-zero.  in sec. -->
				<param name="typicalDuration" value="02:00:00" />
				<!-- method to compute score at typical duration.  Options: | uniform | relative | Use uniform for backwards compatibility (all activities same score; higher proba to drop long acts). -->
				<param name="typicalDurationScoreComputation" value="relative" />
			</parameterset>
			<parameterset type="activityParams" >
				<param name="activityType" value="car interaction" />
				<param name="closingTime" value="undefined" />
				<param name="earliestEndTime" value="undefined" />
				<param name="latestStartTime" value="undefined" />
				<param name="minimalDuration" value="undefined" />
				<param name="openingTime" value="undefined" />
				<param name="priority" value="1.0" />
				<param name="scoringThisActivityAtAll" value="false" />
				<param name="typicalDuration" value="undefined" />
				<param name="typicalDurationScoreComputation" value="relative" />
			</parameterset>
			<parameterset type="activityParams" >
				<param name="activityType" value="pt interaction" />
				<param name="closingTime" value="undefined" />
				<param name="earliestEndTime" value="undefined" />
				<param name="latestStartTime" value="undefined" />
				<param name="minimalDuration" value="undefined" />
				<param name="openingTime" value="undefined" />
				<param name="priority" value="1.0" />
				<param name="scoringThisActivityAtAll" value="false" />
				<param name="typicalDuration" value="undefined" />
				<param name="typicalDurationScoreComputation" value="relative" />
			</parameterset>
			<parameterset type="activityParams" >
				<param name="activityType" value="bike interaction" />
				<param name="closingTime" value="undefined" />
				<param name="earliestEndTime" value="undefined" />
				<param name="latestStartTime" value="undefined" />
				<param name="minimalDuration" value="undefined" />
				<param name="openingTime" value="undefined" />
				<param name="priority" value="1.0" />
				<param name="scoringThisActivityAtAll" value="false" />
				<param name="typicalDuration" value="undefined" />
				<param name="typicalDurationScoreComputation" value="relative" />
			</parameterset>
			<parameterset type="activityParams" >
				<param name="activityType" value="other interaction" />
				<param name="closingTime" value="undefined" />
				<param name="earliestEndTime" value="undefined" />
				<param name="latestStartTime" value="undefined" />
				<param name="minimalDuration" value="undefined" />
				<param name="openingTime" value="undefined" />
				<param name="priority" value="1.0" />
				<param name="scoringThisActivityAtAll" value="false" />
				<param name="typicalDuration" value="undefined" />
				<param name="typicalDurationScoreComputation" value="relative" />
			</parameterset>
			<parameterset type="activityParams" >
				<param name="activityType" value="walk interaction" />
				<param name="closingTime" value="undefined" />
				<param name="earliestEndTime" value="undefined" />
				<param name="latestStartTime" value="undefined" />
				<param name="minimalDuration" value="undefined" />
				<param name="openingTime" value="undefined" />
				<param name="priority" value="1.0" />
				<param name="scoringThisActivityAtAll" value="false" />
				<param name="typicalDuration" value="undefined" />
				<param name="typicalDurationScoreComputation" value="relative" />
			</parameterset>
			<parameterset type="activityParams" >
				<param name="activityType" value="h" />
				<param name="closingTime" value="undefined" />
				<param name="earliestEndTime" value="undefined" />
				<param name="latestStartTime" value="undefined" />
				<param name="minimalDuration" value="08:00:00" />
				<param name="openingTime" value="undefined" />
				<param name="priority" value="1.0" />
				<param name="scoringThisActivityAtAll" value="true" />
				<param name="typicalDuration" value="12:00:00" />
				<param name="typicalDurationScoreComputation" value="relative" />
			</parameterset>
			<parameterset type="activityParams" >
				<param name="activityType" value="w" />
				<param name="closingTime" value="18:00:00" />
				<param name="earliestEndTime" value="undefined" />
				<param name="latestStartTime" value="09:00:00" />
				<param name="minimalDuration" value="06:00:00" />
				<param name="openingTime" value="07:00:00" />
				<param name="priority" value="1.0" />
				<param name="scoringThisActivityAtAll" value="true" />
				<param name="typicalDuration" value="08:00:00" />
				<param name="typicalDurationScoreComputation" value="relative" />
			</parameterset>
			<parameterset type="modeParams" >
				<!-- [utils] alternative-specific constant.  Normally per trip, but that is probably buggy for multi-leg trips. -->
				<param name="constant" value="0.0" />
				<!-- [money] daily monetary constant. default=0 to be backwards compatible -->
				<param name="dailyMonetaryConstant" value="0.0" />
				<!-- [utils] daily utility constant. default=0 to be backwards compatible -->
				<param name="dailyUtilityConstant" value="0.0" />
				<!-- [utils/m] utility of traveling (e.g. walking or driving) per m, normally negative.  this is on top of the time (dis)utility. -->
				<param name="marginalUtilityOfDistance_util_m" value="0.0" />
				<!-- [utils/hr] additional marginal utility of traveling.  normally negative.  this comes on top of the opportunity cost of time -->
				<param name="marginalUtilityOfTraveling_util_hr" value="-6.0" />
				<param name="mode" value="car" />
				<!-- [unit_of_money/m] conversion of distance into money. Normally negative. -->
				<param name="monetaryDistanceRate" value="0.0" />
			</parameterset>
			<parameterset type="modeParams" >
				<param name="constant" value="0.0" />
				<param name="dailyMonetaryConstant" value="0.0" />
				<param name="dailyUtilityConstant" value="0.0" />
				<param name="marginalUtilityOfDistance_util_m" value="0.0" />
				<param name="marginalUtilityOfTraveling_util_hr" value="-6.0" />
				<param name="mode" value="pt" />
				<param name="monetaryDistanceRate" value="0.0" />
			</parameterset>
			<parameterset type="modeParams" >
				<param name="constant" value="0.0" />
				<param name="dailyMonetaryConstant" value="0.0" />
				<param name="dailyUtilityConstant" value="0.0" />
				<param name="marginalUtilityOfDistance_util_m" value="0.0" />
				<param name="marginalUtilityOfTraveling_util_hr" value="-6.0" />
				<param name="mode" value="walk" />
				<param name="monetaryDistanceRate" value="0.0" />
			</parameterset>
			<parameterset type="modeParams" >
				<param name="constant" value="0.0" />
				<param name="dailyMonetaryConstant" value="0.0" />
				<param name="dailyUtilityConstant" value="0.0" />
				<param name="marginalUtilityOfDistance_util_m" value="0.0" />
				<param name="marginalUtilityOfTraveling_util_hr" value="-6.0" />
				<param name="mode" value="bike" />
				<param name="monetaryDistanceRate" value="0.0" />
			</parameterset>
			<parameterset type="modeParams" >
				<param name="constant" value="0.0" />
				<param name="dailyMonetaryConstant" value="0.0" />
				<param name="dailyUtilityConstant" value="0.0" />
				<param name="marginalUtilityOfDistance_util_m" value="0.0" />
				<param name="marginalUtilityOfTraveling_util_hr" value="-6.0" />
				<param name="mode" value="ride" />
				<param name="monetaryDistanceRate" value="0.0" />
			</parameterset>
			<parameterset type="modeParams" >
				<param name="constant" value="0.0" />
				<param name="dailyMonetaryConstant" value="0.0" />
				<param name="dailyUtilityConstant" value="0.0" />
				<param name="marginalUtilityOfDistance_util_m" value="0.0" />
				<param name="marginalUtilityOfTraveling_util_hr" value="-6.0" />
				<param name="mode" value="other" />
				<param name="monetaryDistanceRate" value="0.0" />
			</parameterset>
		</parameterset>
	</module>
	<module name="plans" >
		<!-- String: minOfDurationAndEndTime tryEndTimeThenDuration endTimeOnly. Anything besides minOfDurationAndEndTime will internally use a different (simpler) version of the TimeAllocationMutator. -->
		<param name="activityDurationInterpretation" value="tryEndTimeThenDuration" />
		<!-- The Coordinates Reference System in which the coordinates are expressed in the input file. At import, the coordinates will be converted to the coordinate system defined in "global", and willbe converted back at export. If not specified, no conversion happens. -->
		<param name="inputCRS" value="null" />
		<param name="inputPersonAttributesFile" value="null" />
		<param name="inputPlansFile" value="plans100.xml" />
		<!-- Defines how routes are stored in memory. Currently supported: LinkNetworkRoute, CompressedNetworkRoute. -->
		<param name="networkRouteType" value="LinkNetworkRoute" />
		<!-- (not tested) will remove plan attributes that are presumably not used, such as activityStartTime. default=false. Use with Caution! -->
		<param name="removingUnnecessaryPlanAttributes" value="false" />
		<!-- Name of the (Object)Attribute defining the subpopulation to which pertains a Person (as freight, through traffic, etc.). The attribute must be of String type.  Change away from default only in desperate situations. -->
		<param name="subpopulationAttributeName" value="subpopulation" />
	</module>
	<module name="planscalcroute" >
		<!-- All the modes for which the router is supposed to generate network routes (like car) -->
		<param name="networkModes" value="car" />
		<parameterset type="teleportedModeParameters" >
			<param name="beelineDistanceFactor" value="1.3" />
			<param name="mode" value="bike" />
			<!-- Free-speed factor for a teleported mode. Travel time = teleportedModeFreespeedFactor * <freespeed car travel time>. Insert a line like this for every such mode. Please do not set teleportedModeFreespeedFactor as well as teleportedModeSpeed for the same mode, but if you do, +teleportedModeFreespeedFactor wins over teleportedModeSpeed. -->
			<param name="teleportedModeFreespeedFactor" value="null" />
			<!-- Speed for a teleported mode. Travel time = (<beeline distance> * beelineDistanceFactor) / teleportedModeSpeed. Insert a line like this for every such mode. -->
			<param name="teleportedModeSpeed" value="4.166666666666667" />
		</parameterset>
		<parameterset type="teleportedModeParameters" >
			<param name="beelineDistanceFactor" value="1.3" />
			<param name="mode" value="walk" />
			<param name="teleportedModeFreespeedFactor" value="null" />
			<param name="teleportedModeSpeed" value="0.8333333333333333" />
		</parameterset>
		<parameterset type="teleportedModeParameters" >
			<param name="beelineDistanceFactor" value="1.3" />
			<param name="mode" value="access_walk" />
			<param name="teleportedModeFreespeedFactor" value="null" />
			<param name="teleportedModeSpeed" value="0.8333333333333333" />
		</parameterset>
		<parameterset type="teleportedModeParameters" >
			<param name="beelineDistanceFactor" value="1.3" />
			<param name="mode" value="egress_walk" />
			<param name="teleportedModeFreespeedFactor" value="null" />
			<param name="teleportedModeSpeed" value="0.8333333333333333" />
		</parameterset>
		<parameterset type="teleportedModeParameters" >
			<param name="beelineDistanceFactor" value="1.3" />
			<param name="mode" value="undefined" />
			<param name="teleportedModeFreespeedFactor" value="null" />
			<param name="teleportedModeSpeed" value="13.88888888888889" />
		</parameterset>
		<parameterset type="teleportedModeParameters" >
			<param name="beelineDistanceFactor" value="1.3" />
			<param name="mode" value="ride" />
			<param name="teleportedModeFreespeedFactor" value="1.0" />
			<param name="teleportedModeSpeed" value="null" />
		</parameterset>
		<parameterset type="teleportedModeParameters" >
			<param name="beelineDistanceFactor" value="1.3" />
			<param name="mode" value="pt" />
			<param name="teleportedModeFreespeedFactor" value="2.0" />
			<param name="teleportedModeSpeed" value="null" />
		</parameterset>
	</module>
	<module name="ptCounts" >
		<!-- factor by which to re-scale the simulated values.  necessary when simulation runs with something different from 100%.  needs to be adapted manually -->
		<param name="countsScaleFactor" value="1.0" />
		<!-- distance to distanceFilterCenterNode to include counting stations. The unit of distance is the Euclidean distance implied by the coordinate system -->
		<param name="distanceFilter" value="null" />
		<!-- node id for center node of distance filter -->
		<param name="distanceFilterCenterNode" value="null" />
		<!-- input file containing the alighting (getting off) counts for pt -->
		<param name="inputAlightCountsFile" value="null" />
		<!-- input file containing the boarding (getting on) counts for pt -->
		<param name="inputBoardCountsFile" value="null" />
		<!-- input file containing the occupancy counts for pt -->
		<param name="inputOccupancyCountsFile" value="null" />
		<!-- possible values: `html', `kml', `txt', `all' -->
		<param name="outputformat" value="null" />
		<!-- every how many iterations (starting with 0) counts comparisons are generated -->
		<param name="ptCountsInterval" value="10" />
	</module>
	<module name="qsim" >
		<param name="endTime" value="00:00:00" />
		<param name="flowCapacityFactor" value="1.0" />
		<!-- decides if waiting vehicles enter the network after or before the already driving vehicles were moved. Default: false -->
		<param name="insertingWaitingVehiclesBeforeDrivingVehicles" value="true" />
		<!-- If link dynamics is set as SeepageQ, set to false if all seep modes should perform seepage. Default is true (better option). -->
		<param name="isRestrictingSeepage" value="true" />
		<!-- If link dynamics is set as SeepageQ, set to true if seep mode do not consumes any space on the link. Default is false. -->
		<param name="isSeepModeStorageFree" value="false" />
		<!-- default: FIFO; options: FIFO PassingQ SeepageQ -->
		<param name="linkDynamics" value="FIFO" />
		<!-- The (initial) width of the links of the network. Use positive floating point values. This is used only for visualisation. -->
		<param name="linkWidth" value="30.0" />
		<!-- [comma-separated list] Defines which modes are congested modes. Technically, these are the modes that the departure handler of the netsimengine handles.  Effective cell size, effective lane width, flow capacity factor, and storage capacity factor need to be set with diligence.  Need to be vehicular modes to make sense. -->
		<param name="mainMode" value="car" />
		<!-- Shortens a link in the visualization, i.e. its start and end point are moved into towards the center. Does not affect traffic flow.  -->
		<param name="nodeOffset" value="0.0" />
		<!-- Number of threads used for the QSim.  Note that this setting is independent from the "global" threads setting.  In contrast to earlier versions, the non-parallel special version is no longer there. -->
		<param name="numberOfThreads" value="1" />
		<!-- Boolean. `true': stuck vehicles are removed, aborting the plan; `false': stuck vehicles are forced into the next link. `false' is probably the better choice. -->
		<param name="removeStuckVehicles" value="false" />
		<!-- If link dynamics is set as SeepageQ, set a seep mode. Default is bike. -->
		<param name="seepMode" value="bike" />
		<!-- Possible values: minOfEndtimeAndMobsimFinished, onlyUseEndtime -->
		<param name="simEndtimeInterpretation" value="null" />
		<!-- Options: maxOfStarttimeAndEarliestActivityEnd onlyUseStarttime  -->
		<param name="simStarttimeInterpretation" value="maxOfStarttimeAndEarliestActivityEnd" />
		<!-- snapshotStyle. One of: equiDist queue withHoles withHolesAndShowHoles kinematicWaves  -->
		<param name="snapshotStyle" value="equiDist" />
		<param name="snapshotperiod" value="00:00:00" />
		<param name="startTime" value="00:00:00" />
		<param name="storageCapacityFactor" value="1.0" />
		<!-- time in seconds.  Time after which the frontmost vehicle on a link is called `stuck' if it does not move. -->
		<param name="stuckTime" value="10.0" />
		<param name="timeStepSize" value="00:00:01" />
		<!-- options: queue withHoles kinematicWaves  -->
		<param name="trafficDynamics" value="queue" />
		<!-- Set this parameter to true if lanes should be used, false if not. -->
		<param name="useLanes" value="false" />
		<!-- If a route does not reference a vehicle, agents will use the vehicle with the same id as their own. -->
		<param name="usePersonIdForMissingVehicleId" value="true" />
		<!-- If false, the qsim accumulates fractional flows up to one flow unit in every time step.  If true, flows are updated only if an agent wants to enter the link or an agent is added to buffer. Default is true. -->
		<param name="usingFastCapacityUpdate" value="true" />
		<!-- if the qsim should use as many runners as there are threads (Christoph's dissertation version) or more of them, together with a thread pool (seems to be faster in some situations, but is not tested). -->
		<param name="usingThreadpool" value="true" />
		<!-- Defines what happens if an agent wants to depart, but the specified vehicle is not available. One of: teleport wait exception  -->
		<param name="vehicleBehavior" value="teleport" />
		<!-- If vehicles should all be the same default vehicle, or come from the vehicles file, or something else.  Possible values:  defaultVehicle modeVehicleTypesFromVehiclesData fromVehiclesData -->
		<param name="vehiclesSource" value="defaultVehicle" />
	</module>
	<module name="strategy" >
		<!-- the external executable will be called with a config file as argument.  This is the pathname to a possible skeleton config, to which additional information will be added.  Can be null. -->
		<param name="ExternalExeConfigTemplate" value="null" />
		<!-- time out value (in seconds) after which matsim will consider the external strategy as failed -->
		<param name="ExternalExeTimeOut" value="3600" />
		<!-- root directory for temporary files generated by the external executable. Provided as a service; I don't think this is used by MATSim. -->
		<param name="ExternalExeTmpFileRootDir" value="null" />
		<!-- fraction of iterations where innovative strategies are switched off.  Something like 0.8 should be good.  E.g. if you run from iteration 400 to iteration 500, innovation is switched off at iteration 480 -->
		<param name="fractionOfIterationsToDisableInnovation" value="Infinity" />
		<!-- maximum number of plans per agent.  ``0'' means ``infinity''.  Currently (2010), ``5'' is a good number -->
		<param name="maxAgentPlanMemorySize" value="5" />
		<!-- strategyName of PlanSelector for plans removal.  Possible defaults: WorstPlanSelector SelectRandom SelectExpBetaForRemoval ChangeExpBetaForRemoval PathSizeLogitSelectorForRemoval . The current default, WorstPlanSelector is not a good choice from a discrete choice theoretical perspective. Alternatives, however, have not been systematically tested. kai, feb'12 -->
		<param name="planSelectorForRemoval" value="WorstPlanSelector" />
		<parameterset type="strategysettings" >
			<!-- iteration after which strategy will be disabled.  most useful for ``innovative'' strategies (new routes, new times, ...). Normally, better use fractionOfIterationsToDisableInnovation -->
			<param name="disableAfterIteration" value="-1" />
			<!-- path to external executable (if applicable) -->
			<param name="executionPath" value="null" />
			<!-- strategyName of strategy.  Possible default names: SelectRandomBestScoreKeepLastSelectedChangeExpBetaSelectExpBetaSelectPathSizeLogit (selectors), ReRouteTimeAllocationMutatorTimeAllocationMutator_ReRouteChangeSingleTripModeChangeTripModeSubtourModeChoice (innovative strategies). -->
			<param name="strategyName" value="BestScore" />
			<!-- subpopulation to which the strategy applies. "null" refers to the default population, that is, the set of persons for which no explicit subpopulation is defined (ie no subpopulation attribute) -->
			<param name="subpopulation" value="null" />
			<!-- weight of a strategy: for each agent, a strategy will be selected with a probability proportional to its weight -->
			<param name="weight" value="0.9" />
		</parameterset>
		<parameterset type="strategysettings" >
			<param name="disableAfterIteration" value="-1" />
			<param name="executionPath" value="null" />
			<param name="strategyName" value="ReRoute" />
			<param name="subpopulation" value="null" />
			<param name="weight" value="0.1" />
		</parameterset>
	</module>
	<module name="subtourModeChoice" >
		<!-- Only for backwards compatibility.  Defines if only trips from modes list should change mode, or all trips.  Options: fromAllModesToSpecifiedModes fromSpecifiedModesToSpecifiedModes  -->
		<param name="behavior" value="fromSpecifiedModesToSpecifiedModes" />
		<!-- Defines the chain-based modes, seperated by commas -->
		<param name="chainBasedModes" value="car,bike" />
		<!-- Defines whether car availability must be considered or not. A agent has no car only if it has no license, or never access to a car -->
		<param name="considerCarAvailability" value="false" />
		<!-- Defines all the modes available, including chain-based modes, seperated by commas -->
		<param name="modes" value="car,pt,bike,walk" />
	</module>
	<module name="transit" >
		<!-- The Coordinates Reference System in which the coordinates are expressed in the input file. At import, the coordinates will be converted to the coordinate system defined in "global", and willbe converted back at export. If not specified, no conversion happens. -->
		<param name="inputScheduleCRS" value="null" />
		<!-- Optional input file containing additional attributes for transit lines, stored as ObjectAttributes. -->
		<param name="transitLinesAttributesFile" value="null" />
		<!-- Comma-separated list of transportation modes that are handled as transit. Defaults to 'pt'. -->
		<param name="transitModes" value="pt" />
		<!-- Input file containing the transit schedule to be simulated. -->
		<param name="transitScheduleFile" value="null" />
		<!-- Optional input file containing additional attributes for transit stop facilities, stored as ObjectAttributes. -->
		<param name="transitStopsAttributesFile" value="null" />
		<!-- Set this parameter to true if transit should be simulated, false if not. -->
		<param name="useTransit" value="false" />
		<!-- Input file containing the vehicles used by the departures in the transit schedule. -->
		<param name="vehiclesFile" value="null" />
	</module>
	<module name="transitRouter" >
		<!-- additional time the router allocates when a line switch happens. Can be interpreted as a 'safety' time that agents need to safely transfer from one line to another -->
		<param name="additionalTransferTime" value="0.0" />
		<!-- Factor with which direct walk generalized cost is multiplied before it is compared to the pt generalized cost.  Set to a very high value to reduce direct walk results. -->
		<param name="directWalkFactor" value="1.0" />
		<!-- step size to increase searchRadius if no stops are found -->
		<param name="extensionRadius" value="200.0" />
		<!-- maximum beeline distance between stops that agents could transfer to by walking -->
		<param name="maxBeelineWalkConnectionDistance" value="100.0" />
		<!-- the radius in which stop locations are searched, given a start or target coordinate -->
		<param name="searchRadius" value="1000.0" />
	</module>
	<module name="travelTimeCalculator" >
		<!-- (only for backwards compatibility; only used if separateModes==false && + filterModes==true)  Transport modes that will be respected by the travel time collector. 'car' is default which includes also buses from the pt simulation module. -->
		<param name="analyzedModes" value="car" />
		<param name="calculateLinkToLinkTravelTimes" value="false" />
		<param name="calculateLinkTravelTimes" value="true" />
		<!-- (only for backwards compatiblity; only used if separateModes==false)  Only modes included in analyzedModes are included. -->
		<param name="filterModes" value="false" />
		<!-- The lenght (in sec) of the time period that is splited into time bins; an additional time bin is created to aggregate all travel times collected after maxTime -->
		<param name="maxTime" value="108000" />
		<!-- (only for backwards compatibility) If false, link travel times are measured and aggregated over all vehicles using the link. -->
		<param name="separateModes" value="true" />
		<!-- How to deal with congested time bins that have no link entry events. `optimistic' assumes free speed (too optimistic); 'experimental_LastMile' is experimental and probably too pessimistic. -->
		<param name="travelTimeAggregator" value="optimistic" />
		<!-- The size of the time bin (in sec) into which the link travel times are aggregated for the router -->
		<param name="travelTimeBinSize" value="900" />
		<!-- possible values: TravelTimeCalculatorArray TravelTimeCalculatorHashMap  -->
		<param name="travelTimeCalculator" value="TravelTimeCalculatorArray" />
		<!-- How to deal with link entry times at different positions during the time bin. Currently supported: average, linearinterpolation -->
		<param name="travelTimeGetter" value="average" />
	</module>
	<module name="vehicles" >
		<param name="vehiclesFile" value="null" />
	</module>
	<module name="vspExperimental" >
		<!-- (do not use except of you have to) There was a problem with pt interaction scoring.  Some people solved it by overwriting the parameters of the pt interaction activity type.  Doing this now throws an Exception.  If you still insist on doing this, set the following to true. -->
		<param name="isAbleToOverwritePtInteractionParams" value="false" />
		<param name="isGeneratingBoardingDeniedEvent" value="false" />
		<!-- if an approximation of the opportunity cost of time is included into the radius calculation for location choice.`true' will be faster, but it is an approximation.  Default is `true'; `false' is available for backwards compatibility. -->
		<param name="isUsingOpportunityCostOfTimeForLocationChoice" value="true" />
		<param name="logitScaleParamForPlansRemoval" value="1.0" />
		<!-- Options: | ignore | info | warn | abort | .  When violating VSP defaults, this results in nothing, logfile infos, logfile warnings, or aborts.  Members of VSP should use `abort' or talk to kai. -->
		<param name="vspDefaultsCheckingLevel" value="ignore" />
		<!-- if true then writes output_events in output directory.  default is `false'. Will only work when lastIteration is multiple of events writing interval -->
		<param name="writingOutputEvents" value="true" />
	</module>

</config>

2019-09-18 08:59:50,192  INFO ControlerUtils:63 Complete config dump done.
2019-09-18 08:59:50,192  INFO ControlerUtils:64 Checking consistency of config...
2019-09-18 08:59:50,193  INFO VspConfigConsistencyCheckerImpl:58 NOT running vsp config consistency check because vsp defaults checking level is set to IGNORE
2019-09-18 08:59:50,193  INFO ControlerUtils:66 Checking consistency of config done.
2019-09-18 08:59:50,200 DEBUG NetworkRoutingProvider:75 requesting network routing module with routingMode=car;	mode=car
2019-09-18 08:59:50,202 DEBUG NetworkRoutingProvider:75 requesting network routing module with routingMode=car;	mode=car
2019-09-18 08:59:50,203  INFO Counter:70 [PersonPrepareForSim] handled person # 2
2019-09-18 08:59:50,203  INFO Counter:70 [PersonPrepareForSim] handled person # 1
2019-09-18 08:59:50,205  INFO Counter:70 [PersonPrepareForSim] handled person # 4
2019-09-18 08:59:50,205  INFO Counter:70 [PersonPrepareForSim] handled person # 8
2019-09-18 08:59:50,206  INFO Counter:70 [PersonPrepareForSim] handled person # 16
2019-09-18 08:59:50,206  INFO Counter:70 [PersonPrepareForSim] handled person # 32
2019-09-18 08:59:50,207  INFO Counter:70 [PersonPrepareForSim] handled person # 64
2019-09-18 08:59:50,208  INFO Counter:76 [PersonPrepareForSim] handled person # 100
2019-09-18 08:59:50,210  INFO Counter:70 [VehiclesImpl] added vehicle # 1
2019-09-18 08:59:50,210  INFO Counter:70 [VehiclesImpl] added vehicle # 2
2019-09-18 08:59:50,210  INFO Counter:70 [VehiclesImpl] added vehicle # 4
2019-09-18 08:59:50,211  INFO Counter:70 [VehiclesImpl] added vehicle # 8
2019-09-18 08:59:50,211  INFO Counter:70 [VehiclesImpl] added vehicle # 16
2019-09-18 08:59:50,211  INFO Counter:70 [VehiclesImpl] added vehicle # 32
2019-09-18 08:59:50,212  INFO Counter:70 [VehiclesImpl] added vehicle # 64
2019-09-18 08:59:50,213  INFO AbstractController:123 ###################################################
2019-09-18 08:59:50,213  INFO AbstractController:124 ### ITERATION 0 BEGINS
2019-09-18 08:59:50,215  INFO ControlerListenerManagerImpl:145 calling notifyIterationStarts on org.matsim.analysis.LegHistogramListener
2019-09-18 08:59:50,215  INFO ControlerListenerManagerImpl:145 calling notifyIterationStarts on org.matsim.analysis.LinkStatsControlerListener
2019-09-18 08:59:50,215  INFO ControlerListenerManagerImpl:145 calling notifyIterationStarts on org.matsim.core.replanning.ReplanningContextImpl
2019-09-18 08:59:50,216  INFO ControlerListenerManagerImpl:145 calling notifyIterationStarts on org.matsim.core.scoring.ExperiencedPlansServiceImpl$1
2019-09-18 08:59:50,216  INFO ControlerListenerManagerImpl:145 calling notifyIterationStarts on org.matsim.core.scoring.ScoringFunctionsForPopulation$1
2019-09-18 08:59:50,237  INFO ControlerListenerManagerImpl:148 [it.0] all ControlerIterationStartsListeners called.
2019-09-18 08:59:50,238  INFO ControlerListenerManagerImpl:224 calling notifyBeforeMobsim on org.matsim.core.controler.corelisteners.EventsHandlingImpl
2019-09-18 08:59:50,239  INFO EventsManagerImpl:170 resetting Event-Handlers
2019-09-18 08:59:50,239  INFO EventsManagerImpl:177   org.matsim.core.trafficmonitoring.TravelTimeCalculator
2019-09-18 08:59:50,239  INFO EventsManagerImpl:177   org.matsim.core.scoring.EventsToLegsAndActivities
2019-09-18 08:59:50,239  INFO EventsManagerImpl:177   org.matsim.analysis.VolumesAnalyzer
2019-09-18 08:59:50,240  INFO EventsManagerImpl:177   org.matsim.core.events.algorithms.Vehicle2DriverEventHandler
2019-09-18 08:59:50,240  INFO EventsManagerImpl:177   org.matsim.core.scoring.ScoringFunctionsForPopulation
2019-09-18 08:59:50,240  INFO EventsManagerImpl:177   org.matsim.analysis.LegHistogram
2019-09-18 08:59:50,240  INFO EventsManagerImpl:177   org.matsim.analysis.CalcLegTimes
2019-09-18 08:59:50,244  INFO EventsManagerImpl:144 adding Event-Handler: org.matsim.core.events.algorithms.EventWriterXML
2019-09-18 08:59:50,244  INFO EventsManagerImpl:148   org.matsim.core.events.algorithms.EventWriter
2019-09-18 08:59:50,244  INFO EventsManagerImpl:148   org.matsim.core.events.handler.BasicEventHandler
2019-09-18 08:59:50,244  INFO EventsManagerImpl:207     > org.matsim.api.core.v01.events.Event
2019-09-18 08:59:50,245  INFO EventsManagerImpl:156 
2019-09-18 08:59:50,245  INFO EventsManagerImpl:144 adding Event-Handler: org.matsim.core.events.algorithms.EventWriterXML
2019-09-18 08:59:50,245  INFO EventsManagerImpl:148   org.matsim.core.events.algorithms.EventWriter
2019-09-18 08:59:50,245  INFO EventsManagerImpl:148   org.matsim.core.events.handler.BasicEventHandler
2019-09-18 08:59:50,246  INFO EventsManagerImpl:207     > org.matsim.api.core.v01.events.Event
2019-09-18 08:59:50,246  INFO EventsManagerImpl:156 
2019-09-18 08:59:50,246  INFO ControlerListenerManagerImpl:224 calling notifyBeforeMobsim on org.matsim.core.controler.corelisteners.PlansDumpingImpl
2019-09-18 08:59:50,247  INFO PlansDumpingImpl:76 dumping plans...
2019-09-18 08:59:50,259  INFO Counter:70 [PopulationWriter] dumped person # 1
2019-09-18 08:59:50,259  INFO Counter:70 [PopulationWriter] dumped person # 2
2019-09-18 08:59:50,260  INFO Counter:70 [PopulationWriter] dumped person # 4
2019-09-18 08:59:50,261  INFO Counter:70 [PopulationWriter] dumped person # 8
2019-09-18 08:59:50,262  INFO Counter:70 [PopulationWriter] dumped person # 16
2019-09-18 08:59:50,265  INFO Counter:70 [PopulationWriter] dumped person # 32
2019-09-18 08:59:50,268  INFO Counter:70 [PopulationWriter] dumped person # 64
2019-09-18 08:59:50,276  INFO PopulationWriter:139 Population written to: ./output/ITERS/it.0/0.plans.xml.gz
2019-09-18 08:59:50,278  INFO Counter:76 [PopulationWriter] dumped person # 100
2019-09-18 08:59:50,279  INFO PlansDumpingImpl:93 finished plans dump.
2019-09-18 08:59:50,279  INFO ControlerListenerManagerImpl:229 calling notifyBeforeMobsim on org.matsim.core.population.VspPlansCleaner
2019-09-18 08:59:50,280  INFO ControlerListenerManagerImpl:232 [it.0] all ControlerBeforeMobsimListeners called.
2019-09-18 08:59:50,280 DEBUG NetworkRoutingProvider:75 requesting network routing module with routingMode=car;	mode=car
2019-09-18 08:59:50,280 DEBUG NetworkRoutingProvider:75 requesting network routing module with routingMode=car;	mode=car
2019-09-18 08:59:50,286  INFO Counter:70 [PersonPrepareForSim] handled person # 2
2019-09-18 08:59:50,286  INFO Counter:70 [PersonPrepareForSim] handled person # 1
2019-09-18 08:59:50,286  INFO Counter:70 [PersonPrepareForSim] handled person # 4
2019-09-18 08:59:50,287  INFO Counter:70 [PersonPrepareForSim] handled person # 8
2019-09-18 08:59:50,287  INFO Counter:70 [PersonPrepareForSim] handled person # 32
2019-09-18 08:59:50,287  INFO Counter:70 [PersonPrepareForSim] handled person # 16
2019-09-18 08:59:50,288  INFO Counter:70 [PersonPrepareForSim] handled person # 64
2019-09-18 08:59:50,288  INFO Counter:76 [PersonPrepareForSim] handled person # 100
2019-09-18 08:59:50,441  INFO MobsimListenerManager:49 calling addQueueSimulationListener
2019-09-18 08:59:50,443  INFO MobsimListenerManager:53   assigned class org.matsim.core.mobsim.framework.listeners.MobsimListener to interface org.matsim.vis.snapshotwriters.SnapshotWriterManager
2019-09-18 08:59:50,444  INFO MobsimListenerManager:53   assigned class org.matsim.core.mobsim.framework.listeners.MobsimListener to interface org.matsim.core.mobsim.framework.listeners.MobsimAfterSimStepListener
2019-09-18 08:59:50,444  INFO MobsimListenerManager:53   assigned class org.matsim.core.mobsim.framework.listeners.MobsimListener to interface org.matsim.core.mobsim.framework.listeners.MobsimBeforeCleanupListener
2019-09-18 08:59:50,444  INFO MobsimListenerManager:53   assigned class org.matsim.core.mobsim.framework.listeners.MobsimListener to interface org.matsim.core.mobsim.framework.listeners.MobsimInitializedListener
2019-09-18 08:59:50,445  INFO MobsimListenerManager:53   assigned class org.matsim.core.mobsim.framework.listeners.MobsimListener to interface org.matsim.core.mobsim.framework.listeners.MobsimListener
2019-09-18 08:59:50,467  WARN QueueWithBuffer:378 Link 1 too small: enlarge storage capacity from: 1333.3333333333333 Vehicles to: 3599.712023038157 Vehicles.  This is not fatal, but modifies the traffic flow dynamics.
2019-09-18 08:59:50,471  WARN QueueWithBuffer:378 Link 20 too small: enlarge storage capacity from: 1333.3333333333333 Vehicles to: 3599.712023038157 Vehicles.  This is not fatal, but modifies the traffic flow dynamics.
2019-09-18 08:59:50,471  WARN QueueWithBuffer:378 Link 21 too small: enlarge storage capacity from: 1333.3333333333333 Vehicles to: 3599.712023038157 Vehicles.  This is not fatal, but modifies the traffic flow dynamics.
2019-09-18 08:59:50,472  WARN QueueWithBuffer:378 Link 22 too small: enlarge storage capacity from: 4666.666666666667 Vehicles to: 12598.99208063355 Vehicles.  This is not fatal, but modifies the traffic flow dynamics.
2019-09-18 08:59:50,473  WARN QueueWithBuffer:378 Link 23 too small: enlarge storage capacity from: 1333.3333333333333 Vehicles to: 3599.712023038157 Vehicles.  This is not fatal, but modifies the traffic flow dynamics.
2019-09-18 08:59:50,483  INFO QSimProvider:111 Added MobsimEngine class org.matsim.core.mobsim.qsim.ActivityEngine
2019-09-18 08:59:50,483  INFO QSimProvider:117 Added Activityhandler class org.matsim.core.mobsim.qsim.ActivityEngine
2019-09-18 08:59:50,483  INFO QSimProvider:123 Added DepartureHandler class org.matsim.core.mobsim.qsim.qnetsimengine.VehicularDepartureHandler
2019-09-18 08:59:50,483  INFO QSimProvider:111 Added MobsimEngine class org.matsim.core.mobsim.qsim.qnetsimengine.QNetsimEngine
2019-09-18 08:59:50,483  INFO QSimProvider:111 Added MobsimEngine class org.matsim.core.mobsim.qsim.DefaultTeleportationEngine
2019-09-18 08:59:50,487  INFO QSimProvider:123 Added DepartureHandler class org.matsim.core.mobsim.qsim.DefaultTeleportationEngine
2019-09-18 08:59:50,487  INFO QSimProvider:129 Added AgentSource class org.matsim.core.mobsim.qsim.agents.PopulationAgentSource
2019-09-18 08:59:50,487  INFO MobsimListenerManager:49 calling addQueueSimulationListener
2019-09-18 08:59:50,487  INFO MobsimListenerManager:53   assigned class org.matsim.core.mobsim.framework.listeners.MobsimListener to interface org.matsim.core.mobsim.qsim.messagequeueengine.MessageQueueEngine
2019-09-18 08:59:50,487  INFO MobsimListenerManager:53   assigned class org.matsim.core.mobsim.framework.listeners.MobsimListener to interface org.matsim.core.mobsim.framework.listeners.MobsimBeforeSimStepListener
2019-09-18 08:59:50,487  INFO MobsimListenerManager:53   assigned class org.matsim.core.mobsim.framework.listeners.MobsimListener to interface org.matsim.core.mobsim.framework.listeners.MobsimListener
2019-09-18 08:59:50,489  INFO QSimProvider:135 Added MobsimListener class org.matsim.core.mobsim.qsim.messagequeueengine.MessageQueueEngine
2019-09-18 08:59:50,510  INFO QNetsimEngine:506 Assigned 15 nodes and 23 links to QSimEngineRunner #0
2019-09-18 08:59:50,513  INFO EventsManagerImpl:134  event # 1
2019-09-18 08:59:50,517  INFO EventsManagerImpl:134  event # 4
2019-09-18 08:59:50,518  INFO QNetsimEngine:346 SIMULATION (QNetsimEngine) AT 05:58:30 : #links=0 #nodes=1
2019-09-18 08:59:50,518  INFO QSim:505 SIMULATION (NEW QSim) AT 05:58:30 : #Veh=100 lost=0 simT=0.0s realT=0s; (s/r): 0.0
2019-09-18 08:59:50,519  INFO Gbl:58 used RAM: 64175376B = 62671kB = 61MB  free: 202162928B = 192MB  total: 266338304B = 254MB
2019-09-18 08:59:50,536  INFO EventsManagerImpl:134  event # 16
2019-09-18 08:59:50,555  INFO EventsManagerImpl:134  event # 64
2019-09-18 08:59:50,565  INFO EventsManagerImpl:134  event # 256
2019-09-18 08:59:50,570  INFO QNetsimEngine:346 SIMULATION (QNetsimEngine) AT 06:00:00 : #links=2 #nodes=1
2019-09-18 08:59:50,570  INFO QSim:505 SIMULATION (NEW QSim) AT 06:00:00 : #Veh=100 lost=0 simT=90.0s realT=0s; (s/r): Infinity
2019-09-18 08:59:50,570  INFO Gbl:58 used RAM: 64697616B = 63181kB = 61MB  free: 201640688B = 192MB  total: 266338304B = 254MB
2019-09-18 08:59:50,757  INFO EventsManagerImpl:134  event # 1024
2019-09-18 08:59:51,079  INFO QNetsimEngine:346 SIMULATION (QNetsimEngine) AT 07:00:00 : #links=1 #nodes=0
2019-09-18 08:59:51,080  INFO QSim:505 SIMULATION (NEW QSim) AT 07:00:00 : #Veh=100 lost=0 simT=3690.0s realT=0s; (s/r): Infinity
2019-09-18 08:59:51,080  INFO Gbl:58 used RAM: 69418256B = 67791kB = 66MB  free: 196920048B = 187MB  total: 266338304B = 254MB
2019-09-18 08:59:51,419  INFO QNetsimEngine:346 SIMULATION (QNetsimEngine) AT 08:00:00 : #links=1 #nodes=0
2019-09-18 08:59:51,419  INFO QSim:505 SIMULATION (NEW QSim) AT 08:00:00 : #Veh=5 lost=0 simT=7290.0s realT=0s; (s/r): Infinity
2019-09-18 08:59:51,419  INFO Gbl:58 used RAM: 72563984B = 70863kB = 69MB  free: 193774320B = 184MB  total: 266338304B = 254MB
2019-09-18 08:59:51,713  INFO QNetsimEngine:346 SIMULATION (QNetsimEngine) AT 09:00:00 : #links=1 #nodes=0
2019-09-18 08:59:51,714  INFO QSim:505 SIMULATION (NEW QSim) AT 09:00:00 : #Veh=4 lost=0 simT=10890.0s realT=1s; (s/r): 10890.0
2019-09-18 08:59:51,714  INFO Gbl:58 used RAM: 75183376B = 73421kB = 71MB  free: 191154928B = 182MB  total: 266338304B = 254MB
2019-09-18 08:59:51,950  INFO QNetsimEngine:346 SIMULATION (QNetsimEngine) AT 10:00:00 : #links=0 #nodes=0
2019-09-18 08:59:51,950  INFO QSim:505 SIMULATION (NEW QSim) AT 10:00:00 : #Veh=2 lost=0 simT=14490.0s realT=1s; (s/r): 14490.0
2019-09-18 08:59:51,950  INFO Gbl:58 used RAM: 76758288B = 74959kB = 73MB  free: 189580016B = 180MB  total: 266338304B = 254MB
2019-09-18 08:59:52,250  INFO QNetsimEngine:346 SIMULATION (QNetsimEngine) AT 11:00:00 : #links=0 #nodes=0
2019-09-18 08:59:52,250  INFO QSim:505 SIMULATION (NEW QSim) AT 11:00:00 : #Veh=1 lost=0 simT=18090.0s realT=1s; (s/r): 18090.0
2019-09-18 08:59:52,250  INFO Gbl:58 used RAM: 78855440B = 77007kB = 75MB  free: 187482864B = 178MB  total: 266338304B = 254MB
2019-09-18 08:59:52,561  INFO QNetsimEngine:346 SIMULATION (QNetsimEngine) AT 12:00:00 : #links=0 #nodes=0
2019-09-18 08:59:52,561  INFO QSim:505 SIMULATION (NEW QSim) AT 12:00:00 : #Veh=1 lost=0 simT=21690.0s realT=2s; (s/r): 10845.0
2019-09-18 08:59:52,561  INFO Gbl:58 used RAM: 80426256B = 78541kB = 76MB  free: 185912048B = 177MB  total: 266338304B = 254MB
2019-09-18 08:59:52,888  INFO QNetsimEngine:346 SIMULATION (QNetsimEngine) AT 13:00:00 : #links=1 #nodes=0
2019-09-18 08:59:52,889  INFO QSim:505 SIMULATION (NEW QSim) AT 13:00:00 : #Veh=1 lost=0 simT=25290.0s realT=2s; (s/r): 12645.0
2019-09-18 08:59:52,890  INFO Gbl:58 used RAM: 83049744B = 81103kB = 79MB  free: 183288560B = 174MB  total: 266338304B = 254MB
2019-09-18 08:59:53,029  INFO Gbl:191 Thread performance: Thread=class org.matsim.core.events.SimStepParallelEventsManagerImpl$ProcessEventsRunnable0  cpu-time=0.453125sec
2019-09-18 08:59:53,030  INFO AbstractController$9:220 ### ITERATION 0 fires after mobsim event
2019-09-18 08:59:53,030  INFO ControlerListenerManagerImpl:248 calling notifyAfterMobsim on org.matsim.analysis.LegTimesControlerListener
2019-09-18 08:59:53,032  INFO LegTimesControlerListener:50 [0] average trip (probably: leg) duration is: 1695 seconds = 00:28:15
2019-09-18 08:59:53,032  INFO ControlerListenerManagerImpl:248 calling notifyAfterMobsim on org.matsim.core.scoring.EventsToActivities$1
2019-09-18 08:59:53,035  INFO ControlerListenerManagerImpl:251 [it.0] all ControlerAfterMobsimListeners called.
2019-09-18 08:59:53,035  INFO AbstractController$4:149 ### ITERATION 0 fires scoring event
2019-09-18 08:59:53,036  INFO ControlerListenerManagerImpl:183 calling notifyScoring on org.matsim.core.scoring.PlansScoringImpl
2019-09-18 08:59:53,037  INFO NewScoreAssignerImpl:36 it: 0 msaStart: null
2019-09-18 08:59:53,037  INFO ControlerListenerManagerImpl:194 [it.0] all ControlerScoringListeners called.
2019-09-18 08:59:53,038  INFO AbstractController$5:157 ### ITERATION 0 fires iteration end event
2019-09-18 08:59:53,038  INFO ControlerListenerManagerImpl:160 calling notifyIterationEnds on org.matsim.core.controler.corelisteners.EventsHandlingImpl
2019-09-18 08:59:53,041  INFO EventsManagerImpl:161 removing Event-Handler: org.matsim.core.events.algorithms.EventWriterXML
2019-09-18 08:59:53,042  INFO EventsManagerImpl:161 removing Event-Handler: org.matsim.core.events.algorithms.EventWriterXML
2019-09-18 08:59:53,042  INFO ControlerListenerManagerImpl:160 calling notifyIterationEnds on org.matsim.core.scoring.PlansScoringImpl
2019-09-18 08:59:53,042  INFO ControlerListenerManagerImpl:167 calling notifyIterationEnds on org.matsim.counts.CountsControlerListener
2019-09-18 08:59:53,043  INFO ControlerListenerManagerImpl:167 calling notifyIterationEnds on org.matsim.analysis.ModeStatsControlerListener
2019-09-18 08:59:53,045  INFO ModeStatsControlerListener:155 -- mode share of mode bike = 0.0
2019-09-18 08:59:53,045  INFO ModeStatsControlerListener:155 -- mode share of mode car = 1.0
2019-09-18 08:59:53,045  INFO ModeStatsControlerListener:155 -- mode share of mode other = 0.0
2019-09-18 08:59:53,045  INFO ModeStatsControlerListener:155 -- mode share of mode pt = 0.0
2019-09-18 08:59:53,046  INFO ModeStatsControlerListener:155 -- mode share of mode ride = 0.0
2019-09-18 08:59:53,046  INFO ModeStatsControlerListener:155 -- mode share of mode walk = 0.0
2019-09-18 08:59:53,046  INFO ControlerListenerManagerImpl:167 calling notifyIterationEnds on org.matsim.analysis.ScoreStatsControlerListener
2019-09-18 08:59:53,047  INFO ScoreStatsControlerListener:191 -- avg. score of the executed plan of each agent: 64.75686659291274
2019-09-18 08:59:53,047  INFO ScoreStatsControlerListener:192 -- avg. score of the worst plan of each agent: 64.75686659291274
2019-09-18 08:59:53,047  INFO ScoreStatsControlerListener:193 -- avg. of the avg. plan score per agent: 64.75686659291274
2019-09-18 08:59:53,047  INFO ScoreStatsControlerListener:194 -- avg. score of the best plan of each agent: 64.75686659291274
2019-09-18 08:59:53,048  INFO ControlerListenerManagerImpl:167 calling notifyIterationEnds on org.matsim.analysis.TravelDistanceStatsControlerListener
2019-09-18 08:59:53,048  INFO TravelDistanceStats:128 [TravelDistanceStats] using 2 thread(s).
2019-09-18 08:59:53,049  INFO TravelDistanceStats:141 [TravelDistanceStats] all threads finished.
2019-09-18 08:59:53,050  INFO TravelDistanceStats:161 -- average of the average leg distance per plan (executed plans only): 44850.0
2019-09-18 08:59:53,050  INFO TravelDistanceStats:162 (TravelDistanceStats takes an average over all legs where the simulation reports travelled distances. These are car legs, pt legs,
2019-09-18 08:59:53,050  INFO TravelDistanceStats:163 (and teleported legs whose route contains a distance.)
2019-09-18 08:59:53,050  INFO ControlerListenerManagerImpl:167 calling notifyIterationEnds on org.matsim.analysis.LegHistogramListener
2019-09-18 08:59:53,058  INFO LegHistogramListener:72 number of legs:	201	100%
2019-09-18 08:59:53,058  INFO LegHistogramListener:79 number of car legs:	201	100.0%
2019-09-18 08:59:54,536  INFO ControlerListenerManagerImpl:167 calling notifyIterationEnds on org.matsim.analysis.LinkStatsControlerListener
2019-09-18 08:59:54,536  INFO ControlerListenerManagerImpl:171 [it.0] all ControlerIterationEndsListeners called.
2019-09-18 08:59:54,744  INFO AbstractController:167 ### ITERATION 0 ENDS
2019-09-18 08:59:54,745  INFO AbstractController:168 ###################################################
2019-09-18 08:59:54,745  INFO AbstractController:123 ###################################################
2019-09-18 08:59:54,746  INFO AbstractController:124 ### ITERATION 1 BEGINS
2019-09-18 08:59:54,747  INFO ControlerListenerManagerImpl:145 calling notifyIterationStarts on org.matsim.analysis.LegHistogramListener
2019-09-18 08:59:54,747  INFO ControlerListenerManagerImpl:145 calling notifyIterationStarts on org.matsim.analysis.LinkStatsControlerListener
2019-09-18 08:59:54,747  INFO ControlerListenerManagerImpl:145 calling notifyIterationStarts on org.matsim.core.replanning.ReplanningContextImpl
2019-09-18 08:59:54,748  INFO ControlerListenerManagerImpl:145 calling notifyIterationStarts on org.matsim.core.scoring.ExperiencedPlansServiceImpl$1
2019-09-18 08:59:54,748  INFO ControlerListenerManagerImpl:145 calling notifyIterationStarts on org.matsim.core.scoring.ScoringFunctionsForPopulation$1
2019-09-18 08:59:54,748  INFO ControlerListenerManagerImpl:148 [it.1] all ControlerIterationStartsListeners called.
2019-09-18 08:59:54,750  INFO ControlerListenerManagerImpl:205 calling notifyReplanning on org.matsim.core.controler.corelisteners.PlansReplanningImpl
2019-09-18 08:59:54,751 DEBUG NetworkRoutingProvider:75 requesting network routing module with routingMode=car;	mode=car
2019-09-18 08:59:54,752 DEBUG NetworkRoutingProvider:75 requesting network routing module with routingMode=car;	mode=car
2019-09-18 08:59:54,754  INFO GenericPlanStrategyImpl:125 Plan-Strategy finished, 89 plans handled. Strategy: BestPlanSelector
2019-09-18 08:59:54,755  INFO AbstractMultithreadedModule:141 [PlanRouter] starting 2 threads, handling 11 plans
2019-09-18 08:59:54,767  INFO Counter:70 [PlanRouter] handled plan # 1
2019-09-18 08:59:54,767  INFO Counter:70 [PlanRouter] handled plan # 2
2019-09-18 08:59:54,768  INFO Counter:70 [PlanRouter] handled plan # 4
2019-09-18 08:59:54,769  INFO Counter:70 [PlanRouter] handled plan # 8
2019-09-18 08:59:54,770  INFO AbstractMultithreadedModule:156 [PlanRouter] all 2 threads finished.
2019-09-18 08:59:54,770  INFO GenericPlanStrategyImpl:125 Plan-Strategy finished, 11 plans handled. Strategy: RandomPlanSelector_ReRoute
2019-09-18 08:59:54,771  INFO ControlerListenerManagerImpl:213 [it.1] all ControlerReplanningListeners called.
2019-09-18 08:59:54,771  INFO ControlerListenerManagerImpl:224 calling notifyBeforeMobsim on org.matsim.core.controler.corelisteners.EventsHandlingImpl
2019-09-18 08:59:54,771  INFO EventsManagerImpl:170 resetting Event-Handlers
2019-09-18 08:59:54,772  INFO EventsManagerImpl:177   org.matsim.core.trafficmonitoring.TravelTimeCalculator
2019-09-18 08:59:54,772  INFO EventsManagerImpl:177   org.matsim.core.scoring.EventsToLegsAndActivities
2019-09-18 08:59:54,772  INFO EventsManagerImpl:177   org.matsim.analysis.VolumesAnalyzer
2019-09-18 08:59:54,773  INFO EventsManagerImpl:177   org.matsim.core.events.algorithms.Vehicle2DriverEventHandler
2019-09-18 08:59:54,773  INFO EventsManagerImpl:177   org.matsim.core.scoring.ScoringFunctionsForPopulation
2019-09-18 08:59:54,773  INFO EventsManagerImpl:177   org.matsim.analysis.LegHistogram
2019-09-18 08:59:54,774  INFO EventsManagerImpl:177   org.matsim.analysis.CalcLegTimes
2019-09-18 08:59:54,774  INFO ControlerListenerManagerImpl:224 calling notifyBeforeMobsim on org.matsim.core.controler.corelisteners.PlansDumpingImpl
2019-09-18 08:59:54,775  INFO PlansDumpingImpl:76 dumping plans...
2019-09-18 08:59:54,776  INFO Counter:70 [PopulationWriter] dumped person # 1
2019-09-18 08:59:54,777  INFO Counter:70 [PopulationWriter] dumped person # 2
2019-09-18 08:59:54,777  INFO Counter:70 [PopulationWriter] dumped person # 4
2019-09-18 08:59:54,778  INFO Counter:70 [PopulationWriter] dumped person # 8
2019-09-18 08:59:54,779  INFO Counter:70 [PopulationWriter] dumped person # 16
2019-09-18 08:59:54,781  INFO Counter:70 [PopulationWriter] dumped person # 32
2019-09-18 08:59:54,783  INFO Counter:70 [PopulationWriter] dumped person # 64
2019-09-18 08:59:54,785  INFO PopulationWriter:139 Population written to: ./output/ITERS/it.1/1.plans.xml.gz
2019-09-18 08:59:54,788  INFO Counter:76 [PopulationWriter] dumped person # 100
2019-09-18 08:59:54,788  INFO PlansDumpingImpl:93 finished plans dump.
2019-09-18 08:59:54,788  INFO ControlerListenerManagerImpl:229 calling notifyBeforeMobsim on org.matsim.core.population.VspPlansCleaner
2019-09-18 08:59:54,789  INFO ControlerListenerManagerImpl:232 [it.1] all ControlerBeforeMobsimListeners called.
2019-09-18 08:59:54,790 DEBUG NetworkRoutingProvider:75 requesting network routing module with routingMode=car;	mode=car
2019-09-18 08:59:54,790 DEBUG NetworkRoutingProvider:75 requesting network routing module with routingMode=car;	mode=car
2019-09-18 08:59:54,793  INFO Counter:70 [PersonPrepareForSim] handled person # 1
2019-09-18 08:59:54,793  INFO Counter:70 [PersonPrepareForSim] handled person # 2
2019-09-18 08:59:54,793  INFO Counter:70 [PersonPrepareForSim] handled person # 4
2019-09-18 08:59:54,793  INFO Counter:70 [PersonPrepareForSim] handled person # 8
2019-09-18 08:59:54,794  INFO Counter:70 [PersonPrepareForSim] handled person # 16
2019-09-18 08:59:54,794  INFO Counter:70 [PersonPrepareForSim] handled person # 32
2019-09-18 08:59:54,795  INFO Counter:70 [PersonPrepareForSim] handled person # 64
2019-09-18 08:59:54,796  INFO Counter:76 [PersonPrepareForSim] handled person # 100
2019-09-18 08:59:54,834  INFO MobsimListenerManager:49 calling addQueueSimulationListener
2019-09-18 08:59:54,834  INFO MobsimListenerManager:53   assigned class org.matsim.core.mobsim.framework.listeners.MobsimListener to interface org.matsim.vis.snapshotwriters.SnapshotWriterManager
2019-09-18 08:59:54,836  INFO MobsimListenerManager:53   assigned class org.matsim.core.mobsim.framework.listeners.MobsimListener to interface org.matsim.core.mobsim.framework.listeners.MobsimAfterSimStepListener
2019-09-18 08:59:54,837  INFO MobsimListenerManager:53   assigned class org.matsim.core.mobsim.framework.listeners.MobsimListener to interface org.matsim.core.mobsim.framework.listeners.MobsimBeforeCleanupListener
2019-09-18 08:59:54,837  INFO MobsimListenerManager:53   assigned class org.matsim.core.mobsim.framework.listeners.MobsimListener to interface org.matsim.core.mobsim.framework.listeners.MobsimInitializedListener
2019-09-18 08:59:54,838  INFO MobsimListenerManager:53   assigned class org.matsim.core.mobsim.framework.listeners.MobsimListener to interface org.matsim.core.mobsim.framework.listeners.MobsimListener
2019-09-18 08:59:54,838  WARN QueueWithBuffer:378 Link 1 too small: enlarge storage capacity from: 1333.3333333333333 Vehicles to: 3599.712023038157 Vehicles.  This is not fatal, but modifies the traffic flow dynamics.
2019-09-18 08:59:54,839  WARN QueueWithBuffer:378 Link 20 too small: enlarge storage capacity from: 1333.3333333333333 Vehicles to: 3599.712023038157 Vehicles.  This is not fatal, but modifies the traffic flow dynamics.
2019-09-18 08:59:54,839  WARN QueueWithBuffer:378 Link 21 too small: enlarge storage capacity from: 1333.3333333333333 Vehicles to: 3599.712023038157 Vehicles.  This is not fatal, but modifies the traffic flow dynamics.
2019-09-18 08:59:54,840  WARN QueueWithBuffer:378 Link 22 too small: enlarge storage capacity from: 4666.666666666667 Vehicles to: 12598.99208063355 Vehicles.  This is not fatal, but modifies the traffic flow dynamics.
2019-09-18 08:59:54,840  WARN QueueWithBuffer:378 Link 23 too small: enlarge storage capacity from: 1333.3333333333333 Vehicles to: 3599.712023038157 Vehicles.  This is not fatal, but modifies the traffic flow dynamics.
2019-09-18 08:59:54,841  INFO QSimProvider:111 Added MobsimEngine class org.matsim.core.mobsim.qsim.ActivityEngine
2019-09-18 08:59:54,842  INFO QSimProvider:117 Added Activityhandler class org.matsim.core.mobsim.qsim.ActivityEngine
2019-09-18 08:59:54,843  INFO QSimProvider:123 Added DepartureHandler class org.matsim.core.mobsim.qsim.qnetsimengine.VehicularDepartureHandler
2019-09-18 08:59:54,843  INFO QSimProvider:111 Added MobsimEngine class org.matsim.core.mobsim.qsim.qnetsimengine.QNetsimEngine
2019-09-18 08:59:54,843  INFO QSimProvider:111 Added MobsimEngine class org.matsim.core.mobsim.qsim.DefaultTeleportationEngine
2019-09-18 08:59:54,843  INFO QSimProvider:123 Added DepartureHandler class org.matsim.core.mobsim.qsim.DefaultTeleportationEngine
2019-09-18 08:59:54,844  INFO QSimProvider:129 Added AgentSource class org.matsim.core.mobsim.qsim.agents.PopulationAgentSource
2019-09-18 08:59:54,844  INFO MobsimListenerManager:49 calling addQueueSimulationListener
2019-09-18 08:59:54,844  INFO MobsimListenerManager:53   assigned class org.matsim.core.mobsim.framework.listeners.MobsimListener to interface org.matsim.core.mobsim.qsim.messagequeueengine.MessageQueueEngine
2019-09-18 08:59:54,844  INFO MobsimListenerManager:53   assigned class org.matsim.core.mobsim.framework.listeners.MobsimListener to interface org.matsim.core.mobsim.framework.listeners.MobsimBeforeSimStepListener
2019-09-18 08:59:54,845  INFO MobsimListenerManager:53   assigned class org.matsim.core.mobsim.framework.listeners.MobsimListener to interface org.matsim.core.mobsim.framework.listeners.MobsimListener
2019-09-18 08:59:54,845  INFO QSimProvider:135 Added MobsimListener class org.matsim.core.mobsim.qsim.messagequeueengine.MessageQueueEngine
2019-09-18 08:59:54,847  INFO QNetsimEngine:506 Assigned 15 nodes and 23 links to QSimEngineRunner #0
2019-09-18 08:59:54,849  INFO QNetsimEngine:346 SIMULATION (QNetsimEngine) AT 05:58:30 : #links=0 #nodes=1
2019-09-18 08:59:54,849  INFO QSim:505 SIMULATION (NEW QSim) AT 05:58:30 : #Veh=100 lost=0 simT=0.0s realT=0s; (s/r): 0.0
2019-09-18 08:59:54,850  INFO Gbl:58 used RAM: 144391440B = 141007kB = 137MB  free: 121946864B = 116MB  total: 266338304B = 254MB
2019-09-18 08:59:54,863  INFO QNetsimEngine:346 SIMULATION (QNetsimEngine) AT 06:00:00 : #links=2 #nodes=1
2019-09-18 08:59:54,863  INFO QSim:505 SIMULATION (NEW QSim) AT 06:00:00 : #Veh=100 lost=0 simT=90.0s realT=0s; (s/r): Infinity
2019-09-18 08:59:54,863  INFO Gbl:58 used RAM: 145437968B = 142029kB = 138MB  free: 120900336B = 115MB  total: 266338304B = 254MB
2019-09-18 08:59:54,968  INFO EventsManagerImpl:134  event # 4096
2019-09-18 08:59:55,234  INFO QNetsimEngine:346 SIMULATION (QNetsimEngine) AT 07:00:00 : #links=1 #nodes=0
2019-09-18 08:59:55,234  INFO QSim:505 SIMULATION (NEW QSim) AT 07:00:00 : #Veh=100 lost=0 simT=3690.0s realT=0s; (s/r): Infinity
2019-09-18 08:59:55,235  INFO Gbl:58 used RAM: 148061456B = 144591kB = 141MB  free: 118276848B = 112MB  total: 266338304B = 254MB
2019-09-18 08:59:55,537  INFO QNetsimEngine:346 SIMULATION (QNetsimEngine) AT 08:00:00 : #links=1 #nodes=0
2019-09-18 08:59:55,537  INFO QSim:505 SIMULATION (NEW QSim) AT 08:00:00 : #Veh=5 lost=0 simT=7290.0s realT=0s; (s/r): Infinity
2019-09-18 08:59:55,538  INFO Gbl:58 used RAM: 150158608B = 146639kB = 143MB  free: 116179696B = 110MB  total: 266338304B = 254MB
2019-09-18 08:59:55,812  INFO QNetsimEngine:346 SIMULATION (QNetsimEngine) AT 09:00:00 : #links=1 #nodes=0
2019-09-18 08:59:55,812  INFO QSim:505 SIMULATION (NEW QSim) AT 09:00:00 : #Veh=4 lost=0 simT=10890.0s realT=0s; (s/r): Infinity
2019-09-18 08:59:55,813  INFO Gbl:58 used RAM: 152778000B = 149197kB = 145MB  free: 113560304B = 108MB  total: 266338304B = 254MB
2019-09-18 08:59:56,117  INFO QNetsimEngine:346 SIMULATION (QNetsimEngine) AT 10:00:00 : #links=0 #nodes=0
2019-09-18 08:59:56,118  INFO QSim:505 SIMULATION (NEW QSim) AT 10:00:00 : #Veh=2 lost=0 simT=14490.0s realT=1s; (s/r): 14490.0
2019-09-18 08:59:56,118  INFO Gbl:58 used RAM: 154352912B = 150735kB = 147MB  free: 111985392B = 106MB  total: 266338304B = 254MB
2019-09-18 08:59:56,444  INFO QNetsimEngine:346 SIMULATION (QNetsimEngine) AT 11:00:00 : #links=0 #nodes=0
2019-09-18 08:59:56,445  INFO QSim:505 SIMULATION (NEW QSim) AT 11:00:00 : #Veh=1 lost=0 simT=18090.0s realT=1s; (s/r): 18090.0
2019-09-18 08:59:56,445  INFO Gbl:58 used RAM: 156972304B = 153293kB = 149MB  free: 109366000B = 104MB  total: 266338304B = 254MB
2019-09-18 08:59:56,719  INFO QNetsimEngine:346 SIMULATION (QNetsimEngine) AT 12:00:00 : #links=0 #nodes=0
2019-09-18 08:59:56,720  INFO QSim:505 SIMULATION (NEW QSim) AT 12:00:00 : #Veh=1 lost=0 simT=21690.0s realT=1s; (s/r): 21690.0
2019-09-18 08:59:56,720  INFO Gbl:58 used RAM: 158547216B = 154831kB = 151MB  free: 107791088B = 102MB  total: 266338304B = 254MB
2019-09-18 08:59:57,030  INFO QNetsimEngine:346 SIMULATION (QNetsimEngine) AT 13:00:00 : #links=1 #nodes=0
2019-09-18 08:59:57,030  INFO QSim:505 SIMULATION (NEW QSim) AT 13:00:00 : #Veh=1 lost=0 simT=25290.0s realT=2s; (s/r): 12645.0
2019-09-18 08:59:57,030  INFO Gbl:58 used RAM: 160644368B = 156879kB = 153MB  free: 105693936B = 100MB  total: 266338304B = 254MB
2019-09-18 08:59:57,172  INFO AbstractController$9:220 ### ITERATION 1 fires after mobsim event
2019-09-18 08:59:57,172  INFO Gbl:191 Thread performance: Thread=class org.matsim.core.events.SimStepParallelEventsManagerImpl$ProcessEventsRunnable0  cpu-time=0.4375sec
2019-09-18 08:59:57,173  INFO ControlerListenerManagerImpl:248 calling notifyAfterMobsim on org.matsim.analysis.LegTimesControlerListener
2019-09-18 08:59:57,174  INFO LegTimesControlerListener:50 [1] average trip (probably: leg) duration is: 1678 seconds = 00:27:58
2019-09-18 08:59:57,174  INFO ControlerListenerManagerImpl:248 calling notifyAfterMobsim on org.matsim.core.scoring.EventsToActivities$1
2019-09-18 08:59:57,175  INFO ControlerListenerManagerImpl:251 [it.1] all ControlerAfterMobsimListeners called.
2019-09-18 08:59:57,176  INFO AbstractController$4:149 ### ITERATION 1 fires scoring event
2019-09-18 08:59:57,176  INFO ControlerListenerManagerImpl:183 calling notifyScoring on org.matsim.core.scoring.PlansScoringImpl
2019-09-18 08:59:57,176  INFO NewScoreAssignerImpl:36 it: 1 msaStart: null
2019-09-18 08:59:57,176  INFO ControlerListenerManagerImpl:194 [it.1] all ControlerScoringListeners called.
2019-09-18 08:59:57,176  INFO AbstractController$5:157 ### ITERATION 1 fires iteration end event
2019-09-18 08:59:57,177  INFO ControlerListenerManagerImpl:160 calling notifyIterationEnds on org.matsim.core.controler.corelisteners.EventsHandlingImpl
2019-09-18 08:59:57,177  INFO ControlerListenerManagerImpl:160 calling notifyIterationEnds on org.matsim.core.scoring.PlansScoringImpl
2019-09-18 08:59:57,177  INFO ControlerListenerManagerImpl:167 calling notifyIterationEnds on org.matsim.counts.CountsControlerListener
2019-09-18 08:59:57,177  INFO ControlerListenerManagerImpl:167 calling notifyIterationEnds on org.matsim.analysis.ModeStatsControlerListener
2019-09-18 08:59:57,178  INFO ModeStatsControlerListener:155 -- mode share of mode bike = 0.0
2019-09-18 08:59:57,178  INFO ModeStatsControlerListener:155 -- mode share of mode car = 1.0
2019-09-18 08:59:57,178  INFO ModeStatsControlerListener:155 -- mode share of mode other = 0.0
2019-09-18 08:59:57,178  INFO ModeStatsControlerListener:155 -- mode share of mode pt = 0.0
2019-09-18 08:59:57,179  INFO ModeStatsControlerListener:155 -- mode share of mode ride = 0.0
2019-09-18 08:59:57,179  INFO ModeStatsControlerListener:155 -- mode share of mode walk = 0.0
2019-09-18 08:59:57,252  INFO ControlerListenerManagerImpl:167 calling notifyIterationEnds on org.matsim.analysis.ScoreStatsControlerListener
2019-09-18 08:59:57,253  INFO ScoreStatsControlerListener:191 -- avg. score of the executed plan of each agent: 64.84180132563583
2019-09-18 08:59:57,253  INFO ScoreStatsControlerListener:192 -- avg. score of the worst plan of each agent: 64.78366379257605
2019-09-18 08:59:57,253  INFO ScoreStatsControlerListener:193 -- avg. of the avg. plan score per agent: 64.81273255910591
2019-09-18 08:59:57,253  INFO ScoreStatsControlerListener:194 -- avg. score of the best plan of each agent: 64.84180132563583
2019-09-18 08:59:57,333  INFO ControlerListenerManagerImpl:167 calling notifyIterationEnds on org.matsim.analysis.TravelDistanceStatsControlerListener
2019-09-18 08:59:57,334  INFO TravelDistanceStats:128 [TravelDistanceStats] using 2 thread(s).
2019-09-18 08:59:57,335  INFO TravelDistanceStats:141 [TravelDistanceStats] all threads finished.
2019-09-18 08:59:57,335  INFO TravelDistanceStats:161 -- average of the average leg distance per plan (executed plans only): 44850.0
2019-09-18 08:59:57,335  INFO TravelDistanceStats:162 (TravelDistanceStats takes an average over all legs where the simulation reports travelled distances. These are car legs, pt legs,
2019-09-18 08:59:57,335  INFO TravelDistanceStats:163 (and teleported legs whose route contains a distance.)
2019-09-18 08:59:57,420  INFO ControlerListenerManagerImpl:167 calling notifyIterationEnds on org.matsim.analysis.LegHistogramListener
2019-09-18 08:59:57,422  INFO LegHistogramListener:72 number of legs:	201	100%
2019-09-18 08:59:57,422  INFO LegHistogramListener:79 number of car legs:	201	100.0%
2019-09-18 08:59:57,655  INFO ControlerListenerManagerImpl:167 calling notifyIterationEnds on org.matsim.analysis.LinkStatsControlerListener
2019-09-18 08:59:57,655  INFO ControlerListenerManagerImpl:171 [it.1] all ControlerIterationEndsListeners called.
2019-09-18 08:59:57,768  INFO AbstractController:167 ### ITERATION 1 ENDS
2019-09-18 08:59:57,768  INFO AbstractController:168 ###################################################
2019-09-18 08:59:57,768  INFO AbstractController:123 ###################################################
2019-09-18 08:59:57,768  INFO AbstractController:124 ### ITERATION 2 BEGINS
2019-09-18 08:59:57,769  INFO ControlerListenerManagerImpl:145 calling notifyIterationStarts on org.matsim.analysis.LegHistogramListener
2019-09-18 08:59:57,769  INFO ControlerListenerManagerImpl:145 calling notifyIterationStarts on org.matsim.analysis.LinkStatsControlerListener
2019-09-18 08:59:57,769  INFO ControlerListenerManagerImpl:145 calling notifyIterationStarts on org.matsim.core.replanning.ReplanningContextImpl
2019-09-18 08:59:57,769  INFO ControlerListenerManagerImpl:145 calling notifyIterationStarts on org.matsim.core.scoring.ExperiencedPlansServiceImpl$1
2019-09-18 08:59:57,769  INFO ControlerListenerManagerImpl:145 calling notifyIterationStarts on org.matsim.core.scoring.ScoringFunctionsForPopulation$1
2019-09-18 08:59:57,770  INFO ControlerListenerManagerImpl:148 [it.2] all ControlerIterationStartsListeners called.
2019-09-18 08:59:57,770  INFO ControlerListenerManagerImpl:205 calling notifyReplanning on org.matsim.core.controler.corelisteners.PlansReplanningImpl
2019-09-18 08:59:57,770 DEBUG NetworkRoutingProvider:75 requesting network routing module with routingMode=car;	mode=car
2019-09-18 08:59:57,771 DEBUG NetworkRoutingProvider:75 requesting network routing module with routingMode=car;	mode=car
2019-09-18 08:59:57,772  INFO GenericPlanStrategyImpl:125 Plan-Strategy finished, 89 plans handled. Strategy: BestPlanSelector
2019-09-18 08:59:57,772  INFO AbstractMultithreadedModule:141 [PlanRouter] starting 2 threads, handling 11 plans
2019-09-18 08:59:57,774  INFO Counter:70 [PlanRouter] handled plan # 1
2019-09-18 08:59:57,774  INFO Counter:70 [PlanRouter] handled plan # 2
2019-09-18 08:59:57,775  INFO Counter:70 [PlanRouter] handled plan # 4
2019-09-18 08:59:57,776  INFO Counter:70 [PlanRouter] handled plan # 8
2019-09-18 08:59:57,777  INFO AbstractMultithreadedModule:156 [PlanRouter] all 2 threads finished.
2019-09-18 08:59:57,777  INFO GenericPlanStrategyImpl:125 Plan-Strategy finished, 11 plans handled. Strategy: RandomPlanSelector_ReRoute
2019-09-18 08:59:57,777  INFO ControlerListenerManagerImpl:213 [it.2] all ControlerReplanningListeners called.
2019-09-18 08:59:57,777  INFO ControlerListenerManagerImpl:224 calling notifyBeforeMobsim on org.matsim.core.controler.corelisteners.EventsHandlingImpl
2019-09-18 08:59:57,778  INFO EventsManagerImpl:170 resetting Event-Handlers
2019-09-18 08:59:57,778  INFO EventsManagerImpl:177   org.matsim.core.trafficmonitoring.TravelTimeCalculator
2019-09-18 08:59:57,778  INFO EventsManagerImpl:177   org.matsim.core.scoring.EventsToLegsAndActivities
2019-09-18 08:59:57,778  INFO EventsManagerImpl:177   org.matsim.analysis.VolumesAnalyzer
2019-09-18 08:59:57,779  INFO EventsManagerImpl:177   org.matsim.core.events.algorithms.Vehicle2DriverEventHandler
2019-09-18 08:59:57,779  INFO EventsManagerImpl:177   org.matsim.core.scoring.ScoringFunctionsForPopulation
2019-09-18 08:59:57,779  INFO EventsManagerImpl:177   org.matsim.analysis.LegHistogram
[...]
2019-09-18 09:00:19,072  INFO EventsManagerImpl:144 adding Event-Handler: org.matsim.core.events.algorithms.EventWriterXML
2019-09-18 09:00:19,072  INFO EventsManagerImpl:148   org.matsim.core.events.algorithms.EventWriter
2019-09-18 09:00:19,072  INFO EventsManagerImpl:148   org.matsim.core.events.handler.BasicEventHandler
2019-09-18 09:00:19,072  INFO EventsManagerImpl:207     > org.matsim.api.core.v01.events.Event
2019-09-18 09:00:19,072  INFO EventsManagerImpl:156 
2019-09-18 09:00:19,072  INFO ControlerListenerManagerImpl:224 calling notifyBeforeMobsim on org.matsim.core.controler.corelisteners.PlansDumpingImpl
2019-09-18 09:00:19,072  INFO PlansDumpingImpl:76 dumping plans...
2019-09-18 09:00:19,073  INFO Counter:70 [PopulationWriter] dumped person # 1
2019-09-18 09:00:19,073  INFO Counter:70 [PopulationWriter] dumped person # 2
2019-09-18 09:00:19,074  INFO Counter:70 [PopulationWriter] dumped person # 4
2019-09-18 09:00:19,074  INFO Counter:70 [PopulationWriter] dumped person # 8
2019-09-18 09:00:19,075  INFO Counter:70 [PopulationWriter] dumped person # 16
2019-09-18 09:00:19,075  INFO Counter:70 [PopulationWriter] dumped person # 32
2019-09-18 09:00:19,077  INFO Counter:70 [PopulationWriter] dumped person # 64
2019-09-18 09:00:19,080  INFO PopulationWriter:139 Population written to: ./output/ITERS/it.10/10.plans.xml.gz
2019-09-18 09:00:19,080  INFO Counter:76 [PopulationWriter] dumped person # 100
2019-09-18 09:00:19,081  INFO PlansDumpingImpl:93 finished plans dump.
2019-09-18 09:00:19,081  INFO ControlerListenerManagerImpl:229 calling notifyBeforeMobsim on org.matsim.core.population.VspPlansCleaner
2019-09-18 09:00:19,081  INFO ControlerListenerManagerImpl:232 [it.10] all ControlerBeforeMobsimListeners called.
2019-09-18 09:00:19,081 DEBUG NetworkRoutingProvider:75 requesting network routing module with routingMode=car;	mode=car
2019-09-18 09:00:19,082 DEBUG NetworkRoutingProvider:75 requesting network routing module with routingMode=car;	mode=car
2019-09-18 09:00:19,082  INFO Counter:70 [PersonPrepareForSim] handled person # 1
2019-09-18 09:00:19,082  INFO Counter:70 [PersonPrepareForSim] handled person # 2
2019-09-18 09:00:19,082  INFO Counter:70 [PersonPrepareForSim] handled person # 4
2019-09-18 09:00:19,083  INFO Counter:70 [PersonPrepareForSim] handled person # 8
2019-09-18 09:00:19,083  INFO Counter:70 [PersonPrepareForSim] handled person # 16
2019-09-18 09:00:19,083  INFO Counter:70 [PersonPrepareForSim] handled person # 32
2019-09-18 09:00:19,083  INFO Counter:70 [PersonPrepareForSim] handled person # 64
2019-09-18 09:00:19,083  INFO Counter:76 [PersonPrepareForSim] handled person # 100
2019-09-18 09:00:19,100  INFO MobsimListenerManager:49 calling addQueueSimulationListener
2019-09-18 09:00:19,101  INFO MobsimListenerManager:53   assigned class org.matsim.core.mobsim.framework.listeners.MobsimListener to interface org.matsim.vis.snapshotwriters.SnapshotWriterManager
2019-09-18 09:00:19,101  INFO MobsimListenerManager:53   assigned class org.matsim.core.mobsim.framework.listeners.MobsimListener to interface org.matsim.core.mobsim.framework.listeners.MobsimAfterSimStepListener
2019-09-18 09:00:19,102  INFO MobsimListenerManager:53   assigned class org.matsim.core.mobsim.framework.listeners.MobsimListener to interface org.matsim.core.mobsim.framework.listeners.MobsimBeforeCleanupListener
2019-09-18 09:00:19,102  INFO MobsimListenerManager:53   assigned class org.matsim.core.mobsim.framework.listeners.MobsimListener to interface org.matsim.core.mobsim.framework.listeners.MobsimInitializedListener
2019-09-18 09:00:19,102  INFO MobsimListenerManager:53   assigned class org.matsim.core.mobsim.framework.listeners.MobsimListener to interface org.matsim.core.mobsim.framework.listeners.MobsimListener
2019-09-18 09:00:19,103  INFO QSimProvider:111 Added MobsimEngine class org.matsim.core.mobsim.qsim.ActivityEngine
2019-09-18 09:00:19,103  INFO QSimProvider:117 Added Activityhandler class org.matsim.core.mobsim.qsim.ActivityEngine
2019-09-18 09:00:19,104  INFO QSimProvider:123 Added DepartureHandler class org.matsim.core.mobsim.qsim.qnetsimengine.VehicularDepartureHandler
2019-09-18 09:00:19,104  INFO QSimProvider:111 Added MobsimEngine class org.matsim.core.mobsim.qsim.qnetsimengine.QNetsimEngine
2019-09-18 09:00:19,104  INFO QSimProvider:111 Added MobsimEngine class org.matsim.core.mobsim.qsim.DefaultTeleportationEngine
2019-09-18 09:00:19,104  INFO QSimProvider:123 Added DepartureHandler class org.matsim.core.mobsim.qsim.DefaultTeleportationEngine
2019-09-18 09:00:19,104  INFO QSimProvider:129 Added AgentSource class org.matsim.core.mobsim.qsim.agents.PopulationAgentSource
2019-09-18 09:00:19,104  INFO MobsimListenerManager:49 calling addQueueSimulationListener
2019-09-18 09:00:19,105  INFO MobsimListenerManager:53   assigned class org.matsim.core.mobsim.framework.listeners.MobsimListener to interface org.matsim.core.mobsim.qsim.messagequeueengine.MessageQueueEngine
2019-09-18 09:00:19,105  INFO MobsimListenerManager:53   assigned class org.matsim.core.mobsim.framework.listeners.MobsimListener to interface org.matsim.core.mobsim.framework.listeners.MobsimBeforeSimStepListener
2019-09-18 09:00:19,105  INFO MobsimListenerManager:53   assigned class org.matsim.core.mobsim.framework.listeners.MobsimListener to interface org.matsim.core.mobsim.framework.listeners.MobsimListener
2019-09-18 09:00:19,105  INFO QSimProvider:135 Added MobsimListener class org.matsim.core.mobsim.qsim.messagequeueengine.MessageQueueEngine
2019-09-18 09:00:19,106  INFO QNetsimEngine:506 Assigned 15 nodes and 23 links to QSimEngineRunner #0
2019-09-18 09:00:19,107  INFO QNetsimEngine:346 SIMULATION (QNetsimEngine) AT 05:58:30 : #links=0 #nodes=1
2019-09-18 09:00:19,107  INFO QSim:505 SIMULATION (NEW QSim) AT 05:58:30 : #Veh=100 lost=0 simT=0.0s realT=0s; (s/r): 0.0
2019-09-18 09:00:19,107  INFO Gbl:58 used RAM: 149055696B = 145562kB = 142MB  free: 118331184B = 112MB  total: 267386880B = 255MB
2019-09-18 09:00:19,114  INFO QNetsimEngine:346 SIMULATION (QNetsimEngine) AT 06:00:00 : #links=2 #nodes=1
2019-09-18 09:00:19,115  INFO QSim:505 SIMULATION (NEW QSim) AT 06:00:00 : #Veh=100 lost=0 simT=90.0s realT=0s; (s/r): Infinity
2019-09-18 09:00:19,115  INFO Gbl:58 used RAM: 149582032B = 146076kB = 142MB  free: 117804848B = 112MB  total: 267386880B = 255MB
2019-09-18 09:00:19,423  INFO QNetsimEngine:346 SIMULATION (QNetsimEngine) AT 07:00:00 : #links=1 #nodes=0
2019-09-18 09:00:19,423  INFO QSim:505 SIMULATION (NEW QSim) AT 07:00:00 : #Veh=100 lost=0 simT=3690.0s realT=0s; (s/r): Infinity
2019-09-18 09:00:19,423  INFO Gbl:58 used RAM: 151679184B = 148124kB = 144MB  free: 115707696B = 110MB  total: 267386880B = 255MB
2019-09-18 09:00:19,748  INFO QNetsimEngine:346 SIMULATION (QNetsimEngine) AT 08:00:00 : #links=1 #nodes=0
2019-09-18 09:00:19,748  INFO QSim:505 SIMULATION (NEW QSim) AT 08:00:00 : #Veh=5 lost=0 simT=7290.0s realT=0s; (s/r): Infinity
2019-09-18 09:00:19,748  INFO Gbl:58 used RAM: 154298576B = 150682kB = 147MB  free: 113088304B = 107MB  total: 267386880B = 255MB
2019-09-18 09:00:20,069  INFO QNetsimEngine:346 SIMULATION (QNetsimEngine) AT 09:00:00 : #links=1 #nodes=0
2019-09-18 09:00:20,069  INFO QSim:505 SIMULATION (NEW QSim) AT 09:00:00 : #Veh=4 lost=0 simT=10890.0s realT=0s; (s/r): Infinity
2019-09-18 09:00:20,071  INFO Gbl:58 used RAM: 156922064B = 153244kB = 149MB  free: 110464816B = 105MB  total: 267386880B = 255MB
2019-09-18 09:00:20,375  INFO QNetsimEngine:346 SIMULATION (QNetsimEngine) AT 10:00:00 : #links=1 #nodes=0
2019-09-18 09:00:20,375  INFO QSim:505 SIMULATION (NEW QSim) AT 10:00:00 : #Veh=2 lost=0 simT=14490.0s realT=1s; (s/r): 14490.0
2019-09-18 09:00:20,376  INFO Gbl:58 used RAM: 158492880B = 154778kB = 151MB  free: 108894000B = 103MB  total: 267386880B = 255MB
2019-09-18 09:00:20,642  INFO QNetsimEngine:346 SIMULATION (QNetsimEngine) AT 11:00:00 : #links=0 #nodes=0
2019-09-18 09:00:20,643  INFO QSim:505 SIMULATION (NEW QSim) AT 11:00:00 : #Veh=1 lost=0 simT=18090.0s realT=1s; (s/r): 18090.0
2019-09-18 09:00:20,643  INFO Gbl:58 used RAM: 160590032B = 156826kB = 153MB  free: 106796848B = 101MB  total: 267386880B = 255MB
2019-09-18 09:00:20,951  INFO QNetsimEngine:346 SIMULATION (QNetsimEngine) AT 12:00:00 : #links=0 #nodes=0
2019-09-18 09:00:20,951  INFO QSim:505 SIMULATION (NEW QSim) AT 12:00:00 : #Veh=1 lost=0 simT=21690.0s realT=1s; (s/r): 21690.0
2019-09-18 09:00:20,952  INFO Gbl:58 used RAM: 162687184B = 158874kB = 155MB  free: 104699696B = 99MB  total: 267386880B = 255MB
2019-09-18 09:00:21,254  INFO QNetsimEngine:346 SIMULATION (QNetsimEngine) AT 13:00:00 : #links=1 #nodes=0
2019-09-18 09:00:21,254  INFO QSim:505 SIMULATION (NEW QSim) AT 13:00:00 : #Veh=1 lost=0 simT=25290.0s realT=2s; (s/r): 12645.0
2019-09-18 09:00:21,254  INFO Gbl:58 used RAM: 164262096B = 160412kB = 156MB  free: 103124784B = 98MB  total: 267386880B = 255MB
2019-09-18 09:00:21,380  INFO Gbl:191 Thread performance: Thread=class org.matsim.core.events.SimStepParallelEventsManagerImpl$ProcessEventsRunnable0  cpu-time=0.375sec
2019-09-18 09:00:21,380  INFO AbstractController$9:220 ### ITERATION 10 fires after mobsim event
2019-09-18 09:00:21,380  INFO ControlerListenerManagerImpl:248 calling notifyAfterMobsim on org.matsim.analysis.LegTimesControlerListener
2019-09-18 09:00:21,381  INFO LegTimesControlerListener:50 [10] average trip (probably: leg) duration is: 1628 seconds = 00:27:08
2019-09-18 09:00:21,381  INFO ControlerListenerManagerImpl:248 calling notifyAfterMobsim on org.matsim.core.scoring.EventsToActivities$1
2019-09-18 09:00:21,382  INFO ControlerListenerManagerImpl:251 [it.10] all ControlerAfterMobsimListeners called.
2019-09-18 09:00:21,382  INFO AbstractController$4:149 ### ITERATION 10 fires scoring event
2019-09-18 09:00:21,382  INFO ControlerListenerManagerImpl:183 calling notifyScoring on org.matsim.core.scoring.PlansScoringImpl
2019-09-18 09:00:21,382  INFO NewScoreAssignerImpl:36 it: 10 msaStart: null
2019-09-18 09:00:21,383  INFO ControlerListenerManagerImpl:194 [it.10] all ControlerScoringListeners called.
2019-09-18 09:00:21,383  INFO AbstractController$5:157 ### ITERATION 10 fires iteration end event
2019-09-18 09:00:21,384  INFO ControlerListenerManagerImpl:160 calling notifyIterationEnds on org.matsim.core.controler.corelisteners.EventsHandlingImpl
2019-09-18 09:00:21,387  INFO EventsManagerImpl:161 removing Event-Handler: org.matsim.core.events.algorithms.EventWriterXML
2019-09-18 09:00:21,387  INFO EventsManagerImpl:161 removing Event-Handler: org.matsim.core.events.algorithms.EventWriterXML
2019-09-18 09:00:21,388  INFO ControlerListenerManagerImpl:160 calling notifyIterationEnds on org.matsim.core.scoring.PlansScoringImpl
2019-09-18 09:00:21,388  INFO ControlerListenerManagerImpl:167 calling notifyIterationEnds on org.matsim.counts.CountsControlerListener
2019-09-18 09:00:21,392  INFO CountSimComparisonTableWriter:93 Writing CountsSimComparison to ./output/ITERS/it.10/10.countscompare.txt
2019-09-18 09:00:21,394  INFO CountSimComparisonTableWriter:134 Writing 'average weekday traffic volume' to ./output/ITERS/it.10/10.countscompareAWTV.txt
2019-09-18 09:00:21,395  INFO ControlerListenerManagerImpl:167 calling notifyIterationEnds on org.matsim.analysis.ModeStatsControlerListener
2019-09-18 09:00:21,395  INFO ModeStatsControlerListener:155 -- mode share of mode bike = 0.0
2019-09-18 09:00:21,395  INFO ModeStatsControlerListener:155 -- mode share of mode car = 1.0
2019-09-18 09:00:21,395  INFO ModeStatsControlerListener:155 -- mode share of mode other = 0.0
2019-09-18 09:00:21,395  INFO ModeStatsControlerListener:155 -- mode share of mode pt = 0.0
2019-09-18 09:00:21,395  INFO ModeStatsControlerListener:155 -- mode share of mode ride = 0.0
2019-09-18 09:00:21,396  INFO ModeStatsControlerListener:155 -- mode share of mode walk = 0.0
2019-09-18 09:00:21,440  INFO ControlerListenerManagerImpl:167 calling notifyIterationEnds on org.matsim.analysis.ScoreStatsControlerListener
2019-09-18 09:00:21,441  INFO ScoreStatsControlerListener:191 -- avg. score of the executed plan of each agent: 65.0866398879971
2019-09-18 09:00:21,441  INFO ScoreStatsControlerListener:192 -- avg. score of the worst plan of each agent: 64.91592263882357
2019-09-18 09:00:21,441  INFO ScoreStatsControlerListener:193 -- avg. of the avg. plan score per agent: 65.01554492675089
2019-09-18 09:00:21,441  INFO ScoreStatsControlerListener:194 -- avg. score of the best plan of each agent: 65.09045249606102
2019-09-18 09:00:21,498  INFO ControlerListenerManagerImpl:167 calling notifyIterationEnds on org.matsim.analysis.TravelDistanceStatsControlerListener
2019-09-18 09:00:21,499  INFO TravelDistanceStats:128 [TravelDistanceStats] using 2 thread(s).
2019-09-18 09:00:21,500  INFO TravelDistanceStats:141 [TravelDistanceStats] all threads finished.
2019-09-18 09:00:21,501  INFO TravelDistanceStats:161 -- average of the average leg distance per plan (executed plans only): 44850.0
2019-09-18 09:00:21,501  INFO TravelDistanceStats:162 (TravelDistanceStats takes an average over all legs where the simulation reports travelled distances. These are car legs, pt legs,
2019-09-18 09:00:21,501  INFO TravelDistanceStats:163 (and teleported legs whose route contains a distance.)
2019-09-18 09:00:21,580  INFO ControlerListenerManagerImpl:167 calling notifyIterationEnds on org.matsim.analysis.LegHistogramListener
2019-09-18 09:00:21,582  INFO LegHistogramListener:72 number of legs:	201	100%
2019-09-18 09:00:21,582  INFO LegHistogramListener:79 number of car legs:	201	100.0%
2019-09-18 09:00:21,713  INFO ControlerListenerManagerImpl:167 calling notifyIterationEnds on org.matsim.analysis.LinkStatsControlerListener
2019-09-18 09:00:21,718  INFO ControlerListenerManagerImpl:171 [it.10] all ControlerIterationEndsListeners called.
2019-09-18 09:00:21,806  INFO AbstractController:167 ### ITERATION 10 ENDS
2019-09-18 09:00:21,806  INFO AbstractController:168 ###################################################
2019-09-18 09:00:21,807  INFO MatsimRuntimeModifications:58 S H U T D O W N   ---   start shutdown.
2019-09-18 09:00:21,807  INFO ControlerListenerManagerImpl:121 calling notifyShutdown on org.matsim.core.controler.corelisteners.EventsHandlingImpl
2019-09-18 09:00:21,807  INFO ControlerListenerManagerImpl:121 calling notifyShutdown on org.matsim.core.controler.corelisteners.DumpDataAtEndImpl
2019-09-18 09:00:21,808  INFO Counter:70 [PopulationWriter] dumped person # 1
2019-09-18 09:00:21,808  INFO Counter:70 [PopulationWriter] dumped person # 2
2019-09-18 09:00:21,808  INFO Counter:70 [PopulationWriter] dumped person # 4
2019-09-18 09:00:21,809  INFO Counter:70 [PopulationWriter] dumped person # 8
2019-09-18 09:00:21,809  INFO Counter:70 [PopulationWriter] dumped person # 16
2019-09-18 09:00:21,810  INFO Counter:70 [PopulationWriter] dumped person # 32
2019-09-18 09:00:21,812  INFO Counter:70 [PopulationWriter] dumped person # 64
2019-09-18 09:00:21,813  INFO PopulationWriter:139 Population written to: ./output/output_plans.xml.gz
2019-09-18 09:00:21,814  INFO Counter:76 [PopulationWriter] dumped person # 100
2019-09-18 09:00:21,816  INFO NetworkWriter:69 Writing network to file: ./output/output_network.xml.gz...
2019-09-18 09:00:21,819  INFO NetworkWriter:72 done.
2019-09-18 09:00:21,825  INFO Config:572 setting context to [file:/C:/Users/adeni/Documents/GitHub/matsim-example-project/]
2019-09-18 09:00:21,830  INFO Config:572 setting context to [file:/C:/Users/adeni/Documents/GitHub/matsim-example-project/]
2019-09-18 09:00:21,832  INFO Config:572 setting context to [file:/C:/Users/adeni/Documents/GitHub/matsim-example-project/]
2019-09-18 09:00:21,837  INFO Config:572 setting context to [file:/C:/Users/adeni/Documents/GitHub/matsim-example-project/]
2019-09-18 09:00:21,845  INFO Config:572 setting context to [file:/C:/Users/adeni/Documents/GitHub/matsim-example-project/]
2019-09-18 09:00:21,848  INFO Config:572 setting context to [file:/C:/Users/adeni/Documents/GitHub/matsim-example-project/]
2019-09-18 09:00:21,851  INFO Config:572 setting context to [file:/C:/Users/adeni/Documents/GitHub/matsim-example-project/]
2019-09-18 09:00:21,853  INFO Config:572 setting context to [file:/C:/Users/adeni/Documents/GitHub/matsim-example-project/]
2019-09-18 09:00:21,857  INFO Config:572 setting context to [file:/C:/Users/adeni/Documents/GitHub/matsim-example-project/]
2019-09-18 09:00:21,860  INFO Config:572 setting context to [file:/C:/Users/adeni/Documents/GitHub/matsim-example-project/]
2019-09-18 09:00:21,864  INFO Config:572 setting context to [file:/C:/Users/adeni/Documents/GitHub/matsim-example-project/]
2019-09-18 09:00:21,872  INFO Config:572 setting context to [file:/C:/Users/adeni/Documents/GitHub/matsim-example-project/]
2019-09-18 09:00:21,884  INFO Config:572 setting context to [file:/C:/Users/adeni/Documents/GitHub/matsim-example-project/]
2019-09-18 09:00:21,885  INFO Config:572 setting context to [file:/C:/Users/adeni/Documents/GitHub/matsim-example-project/]
2019-09-18 09:00:21,890  INFO Config:572 setting context to [file:/C:/Users/adeni/Documents/GitHub/matsim-example-project/]
2019-09-18 09:00:21,894  INFO Config:572 setting context to [file:/C:/Users/adeni/Documents/GitHub/matsim-example-project/]
2019-09-18 09:00:21,908  INFO Config:572 setting context to [file:/C:/Users/adeni/Documents/GitHub/matsim-example-project/]
2019-09-18 09:00:21,912  INFO Config:572 setting context to [file:/C:/Users/adeni/Documents/GitHub/matsim-example-project/]
2019-09-18 09:00:21,918  INFO Config:572 setting context to [file:/C:/Users/adeni/Documents/GitHub/matsim-example-project/]
2019-09-18 09:00:21,922  INFO Config:572 setting context to [file:/C:/Users/adeni/Documents/GitHub/matsim-example-project/]
2019-09-18 09:00:21,924  INFO Config:572 setting context to [file:/C:/Users/adeni/Documents/GitHub/matsim-example-project/]
2019-09-18 09:00:21,926  INFO Config:572 setting context to [file:/C:/Users/adeni/Documents/GitHub/matsim-example-project/]
2019-09-18 09:00:21,927  INFO Config:572 setting context to [file:/C:/Users/adeni/Documents/GitHub/matsim-example-project/]
2019-09-18 09:00:21,927  INFO Config:572 setting context to [file:/C:/Users/adeni/Documents/GitHub/matsim-example-project/]
2019-09-18 09:00:21,945  INFO VehicleWriterV1:52 about to write vehicles to: ./output/output_vehicles.xml.gz
2019-09-18 09:00:21,948  INFO HouseholdsWriterV10:66 about to write  households to: ./output/output_households.xml.gz
2019-09-18 09:00:21,949  INFO Counter:76 [HouseholdsWriter] wrote household # 0
2019-09-18 09:00:21,953 ERROR MatsimRuntimeModifications$1:41 Getting uncaught Exception in Thread main
java.lang.NoClassDefFoundError: javax/xml/bind/JAXBException
	at org.matsim.core.controler.corelisteners.DumpDataAtEndImpl.dumpLanes(DumpDataAtEndImpl.java:200)
	at org.matsim.core.controler.corelisteners.DumpDataAtEndImpl.notifyShutdown(DumpDataAtEndImpl.java:131)
	at org.matsim.core.controler.ControlerListenerManagerImpl.fireControlerShutdownEvent(ControlerListenerManagerImpl.java:122)
	at org.matsim.core.controler.AbstractController$1.shutdown(AbstractController.java:85)
	at org.matsim.core.controler.MatsimRuntimeModifications.run(MatsimRuntimeModifications.java:66)
	at org.matsim.core.controler.MatsimRuntimeModifications.run(MatsimRuntimeModifications.java:31)
	at org.matsim.core.controler.AbstractController.run(AbstractController.java:88)
	at org.matsim.core.controler.NewControler.run(NewControler.java:84)
	at org.matsim.core.controler.Controler.run(Controler.java:240)
	at org.matsim.project.RunMatsim.main(RunMatsim.java:61)
Caused by: java.lang.ClassNotFoundException: javax.xml.bind.JAXBException
	at java.base/jdk.internal.loader.BuiltinClassLoader.loadClass(BuiltinClassLoader.java:582)
	at java.base/jdk.internal.loader.ClassLoaders$AppClassLoader.loadClass(ClassLoaders.java:178)
	at java.base/java.lang.ClassLoader.loadClass(ClassLoader.java:521)
	... 10 more
