2019-09-18 11:38:52,634  INFO Gbl:63 JVM: 11; Oracle Corporation; mixed mode; 64-bit
2019-09-18 11:38:52,636  INFO Gbl:67 OS: Windows 10; 10.0; amd64
2019-09-18 11:38:52,636  INFO Gbl:70 CPU cores: 8
2019-09-18 11:38:52,637  INFO Gbl:71 max. Memory: 1024.0MB (1073741824B)
2019-09-18 11:38:52,638  INFO Gbl:109 MATSim-Build: r92f5a963d96c1378d104c07359ace3469f91ad77 (2019-04-10 11:10:17)
2019-09-18 11:38:52,642  INFO ControlerListenerManagerImpl:107 calling notifyStartup on org.matsim.counts.CountsControlerListener
2019-09-18 11:38:52,643  INFO ControlerListenerManagerImpl:107 calling notifyStartup on org.matsim.analysis.ModeStatsControlerListener
2019-09-18 11:38:52,643 DEBUG NetworkRoutingProvider:75 requesting network routing module with routingMode=car;	mode=car
2019-09-18 11:38:52,646  INFO ControlerListenerManagerImpl:107 calling notifyStartup on org.matsim.analysis.ScoreStatsControlerListener
2019-09-18 11:38:52,647  INFO ControlerListenerManagerImpl:110 all ControlerStartupListeners called.
2019-09-18 11:38:52,647  INFO ControlerUtils:58 config dump before iterations start
2019-09-18 11:38:52,666  INFO ControlerUtils:62 

<?xml version="1.0" encoding="UTF-8"?>
<!DOCTYPE config SYSTEM "http://www.matsim.org/files/dtd/config_v2.dtd">
<config>
	<module name="JDEQSim" >
		<param name="carSize" value="7.5" />
		<param name="endTime" value="undefined" />
		<param name="flowCapacityFactor" value="1.0" />
		<param name="gapTravelSpeed" value="15.0" />
		<param name="minimumInFlowCapacity" value="1800.0" />
		<param name="squeezeTime" value="1800.0" />
		<param name="storageCapacityFactor" value="1.0" />
	</module>
	<module name="TimeAllocationMutator" >
		<!-- Default:true; Defines whether time mutation changes an activity's duration. -->
		<param name="mutationAffectsDuration" value="true" />
		<!-- Default:1800.0; Defines how many seconds a time mutation can maximally shift a time. -->
		<param name="mutationRange" value="1800.0" />
		<!-- false; Use individual settings for each subpopulation. If enabled but no settings are found, regular settings are uses as fallback. -->
		<param name="useIndividualSettingsForSubpopulations" value="false" />
	</module>
	<module name="changeMode" >
		<!-- Defines whether car availability is considered be considered or not. An agent has no car only if it has no license, or never access to a car. Default: true -->
		<param name="ignoreCarAvailability" value="true" />
		<!-- Defines the mode switch behavior. Possible values [fromAllModesToSpecifiedModes, fromSpecifiedModesToSpecifiedModes] Default: fromSpecifiedModesToSpecifiedModes. -->
		<param name="modeSwitchBehavior" value="fromSpecifiedModesToSpecifiedModes" />
		<!-- Defines all the modes available, including chain-based modes, seperated by commas -->
		<param name="modes" value="car,pt" />
	</module>
	<module name="controler" >
		<!-- Sets whether graphs showing some analyses should automatically be generated during the simulation. The generation of graphs usually takes a small amount of time that does not have any weight in big simulations, but add a significant overhead in smaller runs or in test cases where the graphical output is not even requested. -->
		<param name="createGraphs" value="true" />
		<!-- true if at the end of a run, plans, network, config etc should be dumped to a file -->
		<param name="dumpDataAtEnd" value="true" />
		<!-- Default=false. If enabled, the router takes travel times needed for turning moves into account. Cannot be used if the (Fast)AStarLandmarks routing or TravelTimeCalculator.separateModes is enabled. -->
		<param name="enableLinkToLinkRouting" value="false" />
		<!-- Default=xml; Specifies the file format for writing events. Currently supported: xml.
		Multiple values can be specified separated by commas (','). -->
		<param name="eventsFileFormat" value="xml" />
		<!-- Default=0;  -->
		<param name="firstIteration" value="0" />
		<!-- Default=1000;  -->
		<param name="lastIteration" value="10" />
		<!-- Defines which mobility simulation will be used. Currently supported: qsim JDEQSim 
		Depending on the chosen mobsim, you'll have to add additional config modules to configure the corresponding mobsim.
		For 'qsim', add a module 'qsim' to the config. -->
		<param name="mobsim" value="qsim" />
		<param name="outputDirectory" value="./output" />
		<!-- Possible values: failIfDirectoryExists, overwriteExistingFiles, deleteDirectoryIfExists -->
		<param name="overwriteFiles" value="failIfDirectoryExists" />
		<!-- The type of routing (least cost path) algorithm used, may have the values: Dijkstra, FastDijkstra, AStarLandmarks or FastAStarLandmarks -->
		<param name="routingAlgorithmType" value="AStarLandmarks" />
		<!-- An identifier for the current run which is used as prefix for output files and mentioned in output xml files etc. -->
		<param name="runId" value="null" />
		<!-- Comma-separated list of visualizer output file formats. `transims', `googleearth', and `otfvis'. -->
		<param name="snapshotFormat" value="" />
		<!-- iterationNumber % writeEventsInterval == 0 defines in which iterations events are written to a file. `0' disables events writing completely. -->
		<param name="writeEventsInterval" value="10" />
		<!-- iterationNumber % writePlansInterval == 0 defines (hopefully) in which iterations plans are written to a file. `0' disables plans writing completely.  Some plans in early iterations are always written -->
		<param name="writePlansInterval" value="10" />
		<!-- iterationNumber % writeSnapshotsInterval == 0 defines in which iterations snapshots are written to a file. `0' disables snapshots writing completely -->
		<param name="writeSnapshotsInterval" value="1" />
	</module>
	<module name="counts" >
		<!-- Transport modes that will be respected for the counts comparison. 'car' is default, which includes also bussed from the pt simulation module. Use this parameter in combination with 'filterModes' = true! -->
		<param name="analyzedModes" value="car" />
		<!-- Specifies over how many iterations the link volumes should be averaged that are used for the counts comparison. Use 1 or 0 to only use the link volumes of a single iteration. This values cannot be larger than the value specified for writeCountsInterval -->
		<param name="averageCountsOverIterations" value="5" />
		<!-- factor by which to re-scale the simulated values.  necessary when simulation runs with something different from 100%.  needs to be adapted manually -->
		<param name="countsScaleFactor" value="1.0" />
		<!-- distance to distanceFilterCenterNode to include counting stations. The unit of distance is the Euclidean distance implied by the coordinate system -->
		<param name="distanceFilter" value="null" />
		<!-- node id for center node of distance filter -->
		<param name="distanceFilterCenterNode" value="null" />
		<!-- If true, link counts from legs performed on modes not included in the 'analyzedModes' parameter are ignored. -->
		<param name="filterModes" value="false" />
		<!-- The Coordinates Reference System in which the coordinates are expressed in the input file. At import, the coordinates will be converted to the coordinate system defined in "global", and willbe converted back at export. If not specified, no conversion happens. -->
		<param name="inputCRS" value="null" />
		<!-- input file name to counts package -->
		<param name="inputCountsFile" value="null" />
		<!-- possible values: `html', `kml', `txt', `all' -->
		<param name="outputformat" value="txt" />
		<!-- Specifies how often the counts comparison should be calculated and written. -->
		<param name="writeCountsInterval" value="10" />
	</module>
	<module name="facilities" >
		<!-- This defines how facilities should be created. Possible values: none fromFile setInScenario onePerActivityLinkInPlansFile onePerActivityLocationInPlansFile  -->
		<param name="facilitiesSource" value="none" />
		<!-- A prefix to be used for auto-generated IDs. -->
		<param name="idPrefix" value="autogen_" />
		<!-- The Coordinates Reference System in which the coordinates are expressed in the input file. At import, the coordinates will be converted to the coordinate system defined in "global", and willbe converted back at export. If not specified, no conversion happens. -->
		<param name="inputCRS" value="null" />
		<param name="inputFacilitiesFile" value="null" />
		<param name="inputFacilityAttributesFile" value="null" />
	</module>
	<module name="global" >
		<param name="coordinateSystem" value="Atlantis" />
		<param name="insistingOnDeprecatedConfigVersion" value="true" />
		<!-- "global" number of threads.  This number is used, e.g., for replanning, but NOT in the mobsim.  This can typically be set to as many cores as you have available, or possibly even slightly more. -->
		<param name="numberOfThreads" value="2" />
		<param name="randomSeed" value="4711" />
	</module>
	<module name="households" >
		<param name="inputFile" value="null" />
		<param name="inputHouseholdAttributesFile" value="null" />
	</module>
	<module name="linkStats" >
		<!-- Specifies over how many iterations the link volumes should be averaged that are used for the link statistics. Use 1 or 0 to only use the link volumes of a single iteration. This values cannot be larger than the value specified for writeLinkStatsInterval -->
		<param name="averageLinkStatsOverIterations" value="5" />
		<!-- Specifies how often the link stats should be calculated and written. Use 0 to disable the generation of link stats. -->
		<param name="writeLinkStatsInterval" value="10" />
	</module>
	<module name="network" >
		<!-- The Coordinates Reference System in which the coordinates are expressed in the input file. At import, the coordinates will be converted to the coordinate system defined in "global", and willbe converted back at export. If not specified, no conversion happens. -->
		<param name="inputCRS" value="null" />
		<param name="inputChangeEventsFile" value="null" />
		<param name="inputNetworkFile" value="network.xml" />
		<param name="laneDefinitionsFile" value="null" />
		<param name="timeVariantNetwork" value="false" />
	</module>
	<module name="parallelEventHandling" >
		<!-- Estimated number of events during mobsim run. An optional optimization hint for the framework. -->
		<param name="estimatedNumberOfEvents" value="null" />
		<!-- Number of threads for parallel events handler. _null_ means the framework decides by itself. 0 is currently not possible. -->
		<param name="numberOfThreads" value="null" />
		<!-- If enabled, each event handler is assigned to its own thread. Note that enabling this feature disabled the numberOfThreads option! This feature is still experimental! -->
		<param name="oneThreadPerHandler" value="false" />
		<!-- If enabled, it is ensured that all events that are created during a time step of the mobility simulation are processed before the next time step is simulated. E.g. neccessary when within-day replanning is used. -->
		<param name="synchronizeOnSimSteps" value="true" />
	</module>
	<module name="planCalcScore" >
		<!-- logit model scale parameter. default: 1.  Has name and default value for historical reasons (see Bryan Raney's phd thesis). -->
		<param name="BrainExpBeta" value="2.0" />
		<param name="PathSizeLogitBeta" value="1.0" />
		<!-- fraction of iterations at which MSA score averaging is started. The matsim theory department suggests to use this together with switching off choice set innovation (where a similar switch exists), but it has not been tested yet. -->
		<param name="fractionOfIterationsToStartScoreMSA" value="null" />
		<!-- new_score = (1-learningRate)*old_score + learningRate * score_from_mobsim.  learning rates close to zero emulate score averaging, but slow down initial convergence -->
		<param name="learningRate" value="1.0" />
		<!-- There used to be a plateau between duration=0 and duration=zeroUtilityDuration. This caused durations to evolve to zero once they were below zeroUtilityDuration, causing problems.  Only use this switch if you need to be backwards compatible with some old results.  (changed nov'13) -->
		<param name="usingOldScoringBelowZeroUtilityDuration" value="false" />
		<!-- write a plans file in each iteration directory which contains what each agent actually did, and the score it received. -->
		<param name="writeExperiencedPlans" value="false" />
		<parameterset type="scoringParameters" >
			<param name="earlyDeparture" value="-0.0" />
			<param name="lateArrival" value="-18.0" />
			<param name="marginalUtilityOfMoney" value="1.0" />
			<param name="performing" value="6.0" />
			<param name="subpopulation" value="null" />
			<param name="utilityOfLineSwitch" value="-1.0" />
			<param name="waiting" value="-0.0" />
			<param name="waitingPt" value="-6.0" />
			<parameterset type="activityParams" >
				<param name="activityType" value="dummy" />
				<param name="closingTime" value="undefined" />
				<param name="earliestEndTime" value="undefined" />
				<param name="latestStartTime" value="undefined" />
				<param name="minimalDuration" value="undefined" />
				<param name="openingTime" value="undefined" />
				<param name="priority" value="1.0" />
				<param name="scoringThisActivityAtAll" value="true" />
				<!-- typical duration of activity.  needs to be defined and non-zero.  in sec. -->
				<param name="typicalDuration" value="02:00:00" />
				<!-- method to compute score at typical duration.  Options: | uniform | relative | Use uniform for backwards compatibility (all activities same score; higher proba to drop long acts). -->
				<param name="typicalDurationScoreComputation" value="relative" />
			</parameterset>
			<parameterset type="activityParams" >
				<param name="activityType" value="car interaction" />
				<param name="closingTime" value="undefined" />
				<param name="earliestEndTime" value="undefined" />
				<param name="latestStartTime" value="undefined" />
				<param name="minimalDuration" value="undefined" />
				<param name="openingTime" value="undefined" />
				<param name="priority" value="1.0" />
				<param name="scoringThisActivityAtAll" value="false" />
				<param name="typicalDuration" value="undefined" />
				<param name="typicalDurationScoreComputation" value="relative" />
			</parameterset>
			<parameterset type="activityParams" >
				<param name="activityType" value="pt interaction" />
				<param name="closingTime" value="undefined" />
				<param name="earliestEndTime" value="undefined" />
				<param name="latestStartTime" value="undefined" />
				<param name="minimalDuration" value="undefined" />
				<param name="openingTime" value="undefined" />
				<param name="priority" value="1.0" />
				<param name="scoringThisActivityAtAll" value="false" />
				<param name="typicalDuration" value="undefined" />
				<param name="typicalDurationScoreComputation" value="relative" />
			</parameterset>
			<parameterset type="activityParams" >
				<param name="activityType" value="bike interaction" />
				<param name="closingTime" value="undefined" />
				<param name="earliestEndTime" value="undefined" />
				<param name="latestStartTime" value="undefined" />
				<param name="minimalDuration" value="undefined" />
				<param name="openingTime" value="undefined" />
				<param name="priority" value="1.0" />
				<param name="scoringThisActivityAtAll" value="false" />
				<param name="typicalDuration" value="undefined" />
				<param name="typicalDurationScoreComputation" value="relative" />
			</parameterset>
			<parameterset type="activityParams" >
				<param name="activityType" value="other interaction" />
				<param name="closingTime" value="undefined" />
				<param name="earliestEndTime" value="undefined" />
				<param name="latestStartTime" value="undefined" />
				<param name="minimalDuration" value="undefined" />
				<param name="openingTime" value="undefined" />
				<param name="priority" value="1.0" />
				<param name="scoringThisActivityAtAll" value="false" />
				<param name="typicalDuration" value="undefined" />
				<param name="typicalDurationScoreComputation" value="relative" />
			</parameterset>
			<parameterset type="activityParams" >
				<param name="activityType" value="walk interaction" />
				<param name="closingTime" value="undefined" />
				<param name="earliestEndTime" value="undefined" />
				<param name="latestStartTime" value="undefined" />
				<param name="minimalDuration" value="undefined" />
				<param name="openingTime" value="undefined" />
				<param name="priority" value="1.0" />
				<param name="scoringThisActivityAtAll" value="false" />
				<param name="typicalDuration" value="undefined" />
				<param name="typicalDurationScoreComputation" value="relative" />
			</parameterset>
			<parameterset type="activityParams" >
				<param name="activityType" value="h" />
				<param name="closingTime" value="undefined" />
				<param name="earliestEndTime" value="undefined" />
				<param name="latestStartTime" value="undefined" />
				<param name="minimalDuration" value="08:00:00" />
				<param name="openingTime" value="undefined" />
				<param name="priority" value="1.0" />
				<param name="scoringThisActivityAtAll" value="true" />
				<param name="typicalDuration" value="12:00:00" />
				<param name="typicalDurationScoreComputation" value="relative" />
			</parameterset>
			<parameterset type="activityParams" >
				<param name="activityType" value="w" />
				<param name="closingTime" value="18:00:00" />
				<param name="earliestEndTime" value="undefined" />
				<param name="latestStartTime" value="09:00:00" />
				<param name="minimalDuration" value="06:00:00" />
				<param name="openingTime" value="07:00:00" />
				<param name="priority" value="1.0" />
				<param name="scoringThisActivityAtAll" value="true" />
				<param name="typicalDuration" value="08:00:00" />
				<param name="typicalDurationScoreComputation" value="relative" />
			</parameterset>
			<parameterset type="modeParams" >
				<!-- [utils] alternative-specific constant.  Normally per trip, but that is probably buggy for multi-leg trips. -->
				<param name="constant" value="0.0" />
				<!-- [money] daily monetary constant. default=0 to be backwards compatible -->
				<param name="dailyMonetaryConstant" value="0.0" />
				<!-- [utils] daily utility constant. default=0 to be backwards compatible -->
				<param name="dailyUtilityConstant" value="0.0" />
				<!-- [utils/m] utility of traveling (e.g. walking or driving) per m, normally negative.  this is on top of the time (dis)utility. -->
				<param name="marginalUtilityOfDistance_util_m" value="0.0" />
				<!-- [utils/hr] additional marginal utility of traveling.  normally negative.  this comes on top of the opportunity cost of time -->
				<param name="marginalUtilityOfTraveling_util_hr" value="-6.0" />
				<param name="mode" value="car" />
				<!-- [unit_of_money/m] conversion of distance into money. Normally negative. -->
				<param name="monetaryDistanceRate" value="0.0" />
			</parameterset>
			<parameterset type="modeParams" >
				<param name="constant" value="0.0" />
				<param name="dailyMonetaryConstant" value="0.0" />
				<param name="dailyUtilityConstant" value="0.0" />
				<param name="marginalUtilityOfDistance_util_m" value="0.0" />
				<param name="marginalUtilityOfTraveling_util_hr" value="-6.0" />
				<param name="mode" value="pt" />
				<param name="monetaryDistanceRate" value="0.0" />
			</parameterset>
			<parameterset type="modeParams" >
				<param name="constant" value="0.0" />
				<param name="dailyMonetaryConstant" value="0.0" />
				<param name="dailyUtilityConstant" value="0.0" />
				<param name="marginalUtilityOfDistance_util_m" value="0.0" />
				<param name="marginalUtilityOfTraveling_util_hr" value="-6.0" />
				<param name="mode" value="walk" />
				<param name="monetaryDistanceRate" value="0.0" />
			</parameterset>
			<parameterset type="modeParams" >
				<param name="constant" value="0.0" />
				<param name="dailyMonetaryConstant" value="0.0" />
				<param name="dailyUtilityConstant" value="0.0" />
				<param name="marginalUtilityOfDistance_util_m" value="0.0" />
				<param name="marginalUtilityOfTraveling_util_hr" value="-6.0" />
				<param name="mode" value="bike" />
				<param name="monetaryDistanceRate" value="0.0" />
			</parameterset>
			<parameterset type="modeParams" >
				<param name="constant" value="0.0" />
				<param name="dailyMonetaryConstant" value="0.0" />
				<param name="dailyUtilityConstant" value="0.0" />
				<param name="marginalUtilityOfDistance_util_m" value="0.0" />
				<param name="marginalUtilityOfTraveling_util_hr" value="-6.0" />
				<param name="mode" value="ride" />
				<param name="monetaryDistanceRate" value="0.0" />
			</parameterset>
			<parameterset type="modeParams" >
				<param name="constant" value="0.0" />
				<param name="dailyMonetaryConstant" value="0.0" />
				<param name="dailyUtilityConstant" value="0.0" />
				<param name="marginalUtilityOfDistance_util_m" value="0.0" />
				<param name="marginalUtilityOfTraveling_util_hr" value="-6.0" />
				<param name="mode" value="other" />
				<param name="monetaryDistanceRate" value="0.0" />
			</parameterset>
		</parameterset>
	</module>
	<module name="plans" >
		<!-- String: minOfDurationAndEndTime tryEndTimeThenDuration endTimeOnly. Anything besides minOfDurationAndEndTime will internally use a different (simpler) version of the TimeAllocationMutator. -->
		<param name="activityDurationInterpretation" value="tryEndTimeThenDuration" />
		<!-- The Coordinates Reference System in which the coordinates are expressed in the input file. At import, the coordinates will be converted to the coordinate system defined in "global", and willbe converted back at export. If not specified, no conversion happens. -->
		<param name="inputCRS" value="null" />
		<param name="inputPersonAttributesFile" value="null" />
		<param name="inputPlansFile" value="plans100.xml" />
		<!-- Defines how routes are stored in memory. Currently supported: LinkNetworkRoute, CompressedNetworkRoute. -->
		<param name="networkRouteType" value="LinkNetworkRoute" />
		<!-- (not tested) will remove plan attributes that are presumably not used, such as activityStartTime. default=false. Use with Caution! -->
		<param name="removingUnnecessaryPlanAttributes" value="false" />
		<!-- Name of the (Object)Attribute defining the subpopulation to which pertains a Person (as freight, through traffic, etc.). The attribute must be of String type.  Change away from default only in desperate situations. -->
		<param name="subpopulationAttributeName" value="subpopulation" />
	</module>
	<module name="planscalcroute" >
		<!-- All the modes for which the router is supposed to generate network routes (like car) -->
		<param name="networkModes" value="car" />
		<parameterset type="teleportedModeParameters" >
			<param name="beelineDistanceFactor" value="1.3" />
			<param name="mode" value="bike" />
			<!-- Free-speed factor for a teleported mode. Travel time = teleportedModeFreespeedFactor * <freespeed car travel time>. Insert a line like this for every such mode. Please do not set teleportedModeFreespeedFactor as well as teleportedModeSpeed for the same mode, but if you do, +teleportedModeFreespeedFactor wins over teleportedModeSpeed. -->
			<param name="teleportedModeFreespeedFactor" value="null" />
			<!-- Speed for a teleported mode. Travel time = (<beeline distance> * beelineDistanceFactor) / teleportedModeSpeed. Insert a line like this for every such mode. -->
			<param name="teleportedModeSpeed" value="4.166666666666667" />
		</parameterset>
		<parameterset type="teleportedModeParameters" >
			<param name="beelineDistanceFactor" value="1.3" />
			<param name="mode" value="walk" />
			<param name="teleportedModeFreespeedFactor" value="null" />
			<param name="teleportedModeSpeed" value="0.8333333333333333" />
		</parameterset>
		<parameterset type="teleportedModeParameters" >
			<param name="beelineDistanceFactor" value="1.3" />
			<param name="mode" value="access_walk" />
			<param name="teleportedModeFreespeedFactor" value="null" />
			<param name="teleportedModeSpeed" value="0.8333333333333333" />
		</parameterset>
		<parameterset type="teleportedModeParameters" >
			<param name="beelineDistanceFactor" value="1.3" />
			<param name="mode" value="egress_walk" />
			<param name="teleportedModeFreespeedFactor" value="null" />
			<param name="teleportedModeSpeed" value="0.8333333333333333" />
		</parameterset>
		<parameterset type="teleportedModeParameters" >
			<param name="beelineDistanceFactor" value="1.3" />
			<param name="mode" value="undefined" />
			<param name="teleportedModeFreespeedFactor" value="null" />
			<param name="teleportedModeSpeed" value="13.88888888888889" />
		</parameterset>
		<parameterset type="teleportedModeParameters" >
			<param name="beelineDistanceFactor" value="1.3" />
			<param name="mode" value="ride" />
			<param name="teleportedModeFreespeedFactor" value="1.0" />
			<param name="teleportedModeSpeed" value="null" />
		</parameterset>
		<parameterset type="teleportedModeParameters" >
			<param name="beelineDistanceFactor" value="1.3" />
			<param name="mode" value="pt" />
			<param name="teleportedModeFreespeedFactor" value="2.0" />
			<param name="teleportedModeSpeed" value="null" />
		</parameterset>
	</module>
	<module name="ptCounts" >
		<!-- factor by which to re-scale the simulated values.  necessary when simulation runs with something different from 100%.  needs to be adapted manually -->
		<param name="countsScaleFactor" value="1.0" />
		<!-- distance to distanceFilterCenterNode to include counting stations. The unit of distance is the Euclidean distance implied by the coordinate system -->
		<param name="distanceFilter" value="null" />
		<!-- node id for center node of distance filter -->
		<param name="distanceFilterCenterNode" value="null" />
		<!-- input file containing the alighting (getting off) counts for pt -->
		<param name="inputAlightCountsFile" value="null" />
		<!-- input file containing the boarding (getting on) counts for pt -->
		<param name="inputBoardCountsFile" value="null" />
		<!-- input file containing the occupancy counts for pt -->
		<param name="inputOccupancyCountsFile" value="null" />
		<!-- possible values: `html', `kml', `txt', `all' -->
		<param name="outputformat" value="null" />
		<!-- every how many iterations (starting with 0) counts comparisons are generated -->
		<param name="ptCountsInterval" value="10" />
	</module>
	<module name="qsim" >
		<param name="endTime" value="00:00:00" />
		<param name="flowCapacityFactor" value="1.0" />
		<!-- decides if waiting vehicles enter the network after or before the already driving vehicles were moved. Default: false -->
		<param name="insertingWaitingVehiclesBeforeDrivingVehicles" value="true" />
		<!-- If link dynamics is set as SeepageQ, set to false if all seep modes should perform seepage. Default is true (better option). -->
		<param name="isRestrictingSeepage" value="true" />
		<!-- If link dynamics is set as SeepageQ, set to true if seep mode do not consumes any space on the link. Default is false. -->
		<param name="isSeepModeStorageFree" value="false" />
		<!-- default: FIFO; options: FIFO PassingQ SeepageQ -->
		<param name="linkDynamics" value="FIFO" />
		<!-- The (initial) width of the links of the network. Use positive floating point values. This is used only for visualisation. -->
		<param name="linkWidth" value="30.0" />
		<!-- [comma-separated list] Defines which modes are congested modes. Technically, these are the modes that the departure handler of the netsimengine handles.  Effective cell size, effective lane width, flow capacity factor, and storage capacity factor need to be set with diligence.  Need to be vehicular modes to make sense. -->
		<param name="mainMode" value="car" />
		<!-- Shortens a link in the visualization, i.e. its start and end point are moved into towards the center. Does not affect traffic flow.  -->
		<param name="nodeOffset" value="0.0" />
		<!-- Number of threads used for the QSim.  Note that this setting is independent from the "global" threads setting.  In contrast to earlier versions, the non-parallel special version is no longer there. -->
		<param name="numberOfThreads" value="1" />
		<!-- Boolean. `true': stuck vehicles are removed, aborting the plan; `false': stuck vehicles are forced into the next link. `false' is probably the better choice. -->
		<param name="removeStuckVehicles" value="false" />
		<!-- If link dynamics is set as SeepageQ, set a seep mode. Default is bike. -->
		<param name="seepMode" value="bike" />
		<!-- Possible values: minOfEndtimeAndMobsimFinished, onlyUseEndtime -->
		<param name="simEndtimeInterpretation" value="null" />
		<!-- Options: maxOfStarttimeAndEarliestActivityEnd onlyUseStarttime  -->
		<param name="simStarttimeInterpretation" value="maxOfStarttimeAndEarliestActivityEnd" />
		<!-- snapshotStyle. One of: equiDist queue withHoles withHolesAndShowHoles kinematicWaves  -->
		<param name="snapshotStyle" value="equiDist" />
		<param name="snapshotperiod" value="00:00:00" />
		<param name="startTime" value="00:00:00" />
		<param name="storageCapacityFactor" value="1.0" />
		<!-- time in seconds.  Time after which the frontmost vehicle on a link is called `stuck' if it does not move. -->
		<param name="stuckTime" value="10.0" />
		<param name="timeStepSize" value="00:00:01" />
		<!-- options: queue withHoles kinematicWaves  -->
		<param name="trafficDynamics" value="queue" />
		<!-- Set this parameter to true if lanes should be used, false if not. -->
		<param name="useLanes" value="false" />
		<!-- If a route does not reference a vehicle, agents will use the vehicle with the same id as their own. -->
		<param name="usePersonIdForMissingVehicleId" value="true" />
		<!-- If false, the qsim accumulates fractional flows up to one flow unit in every time step.  If true, flows are updated only if an agent wants to enter the link or an agent is added to buffer. Default is true. -->
		<param name="usingFastCapacityUpdate" value="true" />
		<!-- if the qsim should use as many runners as there are threads (Christoph's dissertation version) or more of them, together with a thread pool (seems to be faster in some situations, but is not tested). -->
		<param name="usingThreadpool" value="true" />
		<!-- Defines what happens if an agent wants to depart, but the specified vehicle is not available. One of: teleport wait exception  -->
		<param name="vehicleBehavior" value="teleport" />
		<!-- If vehicles should all be the same default vehicle, or come from the vehicles file, or something else.  Possible values:  defaultVehicle modeVehicleTypesFromVehiclesData fromVehiclesData -->
		<param name="vehiclesSource" value="defaultVehicle" />
	</module>
	<module name="strategy" >
		<!-- the external executable will be called with a config file as argument.  This is the pathname to a possible skeleton config, to which additional information will be added.  Can be null. -->
		<param name="ExternalExeConfigTemplate" value="null" />
		<!-- time out value (in seconds) after which matsim will consider the external strategy as failed -->
		<param name="ExternalExeTimeOut" value="3600" />
		<!-- root directory for temporary files generated by the external executable. Provided as a service; I don't think this is used by MATSim. -->
		<param name="ExternalExeTmpFileRootDir" value="null" />
		<!-- fraction of iterations where innovative strategies are switched off.  Something like 0.8 should be good.  E.g. if you run from iteration 400 to iteration 500, innovation is switched off at iteration 480 -->
		<param name="fractionOfIterationsToDisableInnovation" value="Infinity" />
		<!-- maximum number of plans per agent.  ``0'' means ``infinity''.  Currently (2010), ``5'' is a good number -->
		<param name="maxAgentPlanMemorySize" value="5" />
		<!-- strategyName of PlanSelector for plans removal.  Possible defaults: WorstPlanSelector SelectRandom SelectExpBetaForRemoval ChangeExpBetaForRemoval PathSizeLogitSelectorForRemoval . The current default, WorstPlanSelector is not a good choice from a discrete choice theoretical perspective. Alternatives, however, have not been systematically tested. kai, feb'12 -->
		<param name="planSelectorForRemoval" value="WorstPlanSelector" />
		<parameterset type="strategysettings" >
			<!-- iteration after which strategy will be disabled.  most useful for ``innovative'' strategies (new routes, new times, ...). Normally, better use fractionOfIterationsToDisableInnovation -->
			<param name="disableAfterIteration" value="-1" />
			<!-- path to external executable (if applicable) -->
			<param name="executionPath" value="null" />
			<!-- strategyName of strategy.  Possible default names: SelectRandomBestScoreKeepLastSelectedChangeExpBetaSelectExpBetaSelectPathSizeLogit (selectors), ReRouteTimeAllocationMutatorTimeAllocationMutator_ReRouteChangeSingleTripModeChangeTripModeSubtourModeChoice (innovative strategies). -->
			<param name="strategyName" value="BestScore" />
			<!-- subpopulation to which the strategy applies. "null" refers to the default population, that is, the set of persons for which no explicit subpopulation is defined (ie no subpopulation attribute) -->
			<param name="subpopulation" value="null" />
			<!-- weight of a strategy: for each agent, a strategy will be selected with a probability proportional to its weight -->
			<param name="weight" value="0.9" />
		</parameterset>
		<parameterset type="strategysettings" >
			<param name="disableAfterIteration" value="-1" />
			<param name="executionPath" value="null" />
			<param name="strategyName" value="ReRoute" />
			<param name="subpopulation" value="null" />
			<param name="weight" value="0.1" />
		</parameterset>
	</module>
	<module name="subtourModeChoice" >
		<!-- Only for backwards compatibility.  Defines if only trips from modes list should change mode, or all trips.  Options: fromAllModesToSpecifiedModes fromSpecifiedModesToSpecifiedModes  -->
		<param name="behavior" value="fromSpecifiedModesToSpecifiedModes" />
		<!-- Defines the chain-based modes, seperated by commas -->
		<param name="chainBasedModes" value="car,bike" />
		<!-- Defines whether car availability must be considered or not. A agent has no car only if it has no license, or never access to a car -->
		<param name="considerCarAvailability" value="false" />
		<!-- Defines all the modes available, including chain-based modes, seperated by commas -->
		<param name="modes" value="car,pt,bike,walk" />
	</module>
	<module name="transit" >
		<!-- The Coordinates Reference System in which the coordinates are expressed in the input file. At import, the coordinates will be converted to the coordinate system defined in "global", and willbe converted back at export. If not specified, no conversion happens. -->
		<param name="inputScheduleCRS" value="null" />
		<!-- Optional input file containing additional attributes for transit lines, stored as ObjectAttributes. -->
		<param name="transitLinesAttributesFile" value="null" />
		<!-- Comma-separated list of transportation modes that are handled as transit. Defaults to 'pt'. -->
		<param name="transitModes" value="pt" />
		<!-- Input file containing the transit schedule to be simulated. -->
		<param name="transitScheduleFile" value="null" />
		<!-- Optional input file containing additional attributes for transit stop facilities, stored as ObjectAttributes. -->
		<param name="transitStopsAttributesFile" value="null" />
		<!-- Set this parameter to true if transit should be simulated, false if not. -->
		<param name="useTransit" value="false" />
		<!-- Input file containing the vehicles used by the departures in the transit schedule. -->
		<param name="vehiclesFile" value="null" />
	</module>
	<module name="transitRouter" >
		<!-- additional time the router allocates when a line switch happens. Can be interpreted as a 'safety' time that agents need to safely transfer from one line to another -->
		<param name="additionalTransferTime" value="0.0" />
		<!-- Factor with which direct walk generalized cost is multiplied before it is compared to the pt generalized cost.  Set to a very high value to reduce direct walk results. -->
		<param name="directWalkFactor" value="1.0" />
		<!-- step size to increase searchRadius if no stops are found -->
		<param name="extensionRadius" value="200.0" />
		<!-- maximum beeline distance between stops that agents could transfer to by walking -->
		<param name="maxBeelineWalkConnectionDistance" value="100.0" />
		<!-- the radius in which stop locations are searched, given a start or target coordinate -->
		<param name="searchRadius" value="1000.0" />
	</module>
	<module name="travelTimeCalculator" >
		<!-- (only for backwards compatibility; only used if separateModes==false && + filterModes==true)  Transport modes that will be respected by the travel time collector. 'car' is default which includes also buses from the pt simulation module. -->
		<param name="analyzedModes" value="car" />
		<param name="calculateLinkToLinkTravelTimes" value="false" />
		<param name="calculateLinkTravelTimes" value="true" />
		<!-- (only for backwards compatiblity; only used if separateModes==false)  Only modes included in analyzedModes are included. -->
		<param name="filterModes" value="false" />
		<!-- The lenght (in sec) of the time period that is splited into time bins; an additional time bin is created to aggregate all travel times collected after maxTime -->
		<param name="maxTime" value="108000" />
		<!-- (only for backwards compatibility) If false, link travel times are measured and aggregated over all vehicles using the link. -->
		<param name="separateModes" value="true" />
		<!-- How to deal with congested time bins that have no link entry events. `optimistic' assumes free speed (too optimistic); 'experimental_LastMile' is experimental and probably too pessimistic. -->
		<param name="travelTimeAggregator" value="optimistic" />
		<!-- The size of the time bin (in sec) into which the link travel times are aggregated for the router -->
		<param name="travelTimeBinSize" value="900" />
		<!-- possible values: TravelTimeCalculatorArray TravelTimeCalculatorHashMap  -->
		<param name="travelTimeCalculator" value="TravelTimeCalculatorArray" />
		<!-- How to deal with link entry times at different positions during the time bin. Currently supported: average, linearinterpolation -->
		<param name="travelTimeGetter" value="average" />
	</module>
	<module name="vehicles" >
		<param name="vehiclesFile" value="null" />
	</module>
	<module name="vspExperimental" >
		<!-- (do not use except of you have to) There was a problem with pt interaction scoring.  Some people solved it by overwriting the parameters of the pt interaction activity type.  Doing this now throws an Exception.  If you still insist on doing this, set the following to true. -->
		<param name="isAbleToOverwritePtInteractionParams" value="false" />
		<param name="isGeneratingBoardingDeniedEvent" value="false" />
		<!-- if an approximation of the opportunity cost of time is included into the radius calculation for location choice.`true' will be faster, but it is an approximation.  Default is `true'; `false' is available for backwards compatibility. -->
		<param name="isUsingOpportunityCostOfTimeForLocationChoice" value="true" />
		<param name="logitScaleParamForPlansRemoval" value="1.0" />
		<!-- Options: | ignore | info | warn | abort | .  When violating VSP defaults, this results in nothing, logfile infos, logfile warnings, or aborts.  Members of VSP should use `abort' or talk to kai. -->
		<param name="vspDefaultsCheckingLevel" value="ignore" />
		<!-- if true then writes output_events in output directory.  default is `false'. Will only work when lastIteration is multiple of events writing interval -->
		<param name="writingOutputEvents" value="true" />
	</module>

</config>

2019-09-18 11:38:52,705  INFO ControlerUtils:63 Complete config dump done.
2019-09-18 11:38:52,705  INFO ControlerUtils:64 Checking consistency of config...
2019-09-18 11:38:52,706  INFO VspConfigConsistencyCheckerImpl:58 NOT running vsp config consistency check because vsp defaults checking level is set to IGNORE
2019-09-18 11:38:52,706  INFO ControlerUtils:66 Checking consistency of config done.
2019-09-18 11:38:52,713 DEBUG NetworkRoutingProvider:75 requesting network routing module with routingMode=car;	mode=car
2019-09-18 11:38:52,715 DEBUG NetworkRoutingProvider:75 requesting network routing module with routingMode=car;	mode=car
2019-09-18 11:38:52,716  INFO Counter:70 [PersonPrepareForSim] handled person # 2
2019-09-18 11:38:52,718  INFO Counter:70 [PersonPrepareForSim] handled person # 4
2019-09-18 11:38:52,719  INFO Counter:70 [PersonPrepareForSim] handled person # 8
2019-09-18 11:38:52,716  INFO Counter:70 [PersonPrepareForSim] handled person # 1
2019-09-18 11:38:52,720  INFO Counter:70 [PersonPrepareForSim] handled person # 32
2019-09-18 11:38:52,719  INFO Counter:70 [PersonPrepareForSim] handled person # 16
2019-09-18 11:38:52,720  INFO Counter:70 [PersonPrepareForSim] handled person # 64
2019-09-18 11:38:52,720  INFO Counter:76 [PersonPrepareForSim] handled person # 100
2019-09-18 11:38:52,722  INFO Counter:70 [VehiclesImpl] added vehicle # 1
2019-09-18 11:38:52,723  INFO Counter:70 [VehiclesImpl] added vehicle # 2
2019-09-18 11:38:52,723  INFO Counter:70 [VehiclesImpl] added vehicle # 4
2019-09-18 11:38:52,723  INFO Counter:70 [VehiclesImpl] added vehicle # 8
2019-09-18 11:38:52,724  INFO Counter:70 [VehiclesImpl] added vehicle # 16
2019-09-18 11:38:52,724  INFO Counter:70 [VehiclesImpl] added vehicle # 32
2019-09-18 11:38:52,724  INFO Counter:70 [VehiclesImpl] added vehicle # 64
2019-09-18 11:38:52,727  INFO AbstractController:123 ###################################################
2019-09-18 11:38:52,727  INFO AbstractController:124 ### ITERATION 0 BEGINS
2019-09-18 11:38:52,729  INFO ControlerListenerManagerImpl:145 calling notifyIterationStarts on org.matsim.analysis.LegHistogramListener
2019-09-18 11:38:52,730  INFO ControlerListenerManagerImpl:145 calling notifyIterationStarts on org.matsim.analysis.LinkStatsControlerListener
2019-09-18 11:38:52,731  INFO ControlerListenerManagerImpl:145 calling notifyIterationStarts on org.matsim.core.replanning.ReplanningContextImpl
2019-09-18 11:38:52,731  INFO ControlerListenerManagerImpl:145 calling notifyIterationStarts on org.matsim.core.scoring.ExperiencedPlansServiceImpl$1
2019-09-18 11:38:52,732  INFO ControlerListenerManagerImpl:145 calling notifyIterationStarts on org.matsim.core.scoring.ScoringFunctionsForPopulation$1
2019-09-18 11:38:52,751  INFO ControlerListenerManagerImpl:148 [it.0] all ControlerIterationStartsListeners called.
2019-09-18 11:38:52,752  INFO ControlerListenerManagerImpl:224 calling notifyBeforeMobsim on org.matsim.core.controler.corelisteners.EventsHandlingImpl
2019-09-18 11:38:52,754  INFO EventsManagerImpl:170 resetting Event-Handlers
2019-09-18 11:38:52,754  INFO EventsManagerImpl:177   org.matsim.core.trafficmonitoring.TravelTimeCalculator
2019-09-18 11:38:52,754  INFO EventsManagerImpl:177   org.matsim.core.scoring.EventsToLegsAndActivities
2019-09-18 11:38:52,754  INFO EventsManagerImpl:177   org.matsim.analysis.VolumesAnalyzer
2019-09-18 11:38:52,754  INFO EventsManagerImpl:177   org.matsim.core.events.algorithms.Vehicle2DriverEventHandler
2019-09-18 11:38:52,756  INFO EventsManagerImpl:177   org.matsim.core.scoring.ScoringFunctionsForPopulation
2019-09-18 11:38:52,756  INFO EventsManagerImpl:177   org.matsim.analysis.LegHistogram
2019-09-18 11:38:52,758  INFO EventsManagerImpl:177   org.matsim.analysis.CalcLegTimes
2019-09-18 11:38:52,762  INFO EventsManagerImpl:144 adding Event-Handler: org.matsim.core.events.algorithms.EventWriterXML
2019-09-18 11:38:52,762  INFO EventsManagerImpl:148   org.matsim.core.events.algorithms.EventWriter
2019-09-18 11:38:52,764  INFO EventsManagerImpl:148   org.matsim.core.events.handler.BasicEventHandler
2019-09-18 11:38:52,765  INFO EventsManagerImpl:207     > org.matsim.api.core.v01.events.Event
2019-09-18 11:38:52,765  INFO EventsManagerImpl:156 
2019-09-18 11:38:52,766  INFO EventsManagerImpl:144 adding Event-Handler: org.matsim.core.events.algorithms.EventWriterXML
2019-09-18 11:38:52,766  INFO EventsManagerImpl:148   org.matsim.core.events.algorithms.EventWriter
2019-09-18 11:38:52,767  INFO EventsManagerImpl:148   org.matsim.core.events.handler.BasicEventHandler
2019-09-18 11:38:52,767  INFO EventsManagerImpl:207     > org.matsim.api.core.v01.events.Event
2019-09-18 11:38:52,767  INFO EventsManagerImpl:156 
2019-09-18 11:38:52,767  INFO ControlerListenerManagerImpl:224 calling notifyBeforeMobsim on org.matsim.core.controler.corelisteners.PlansDumpingImpl
2019-09-18 11:38:52,767  INFO PlansDumpingImpl:76 dumping plans...
2019-09-18 11:38:52,781  INFO Counter:70 [PopulationWriter] dumped person # 1
2019-09-18 11:38:52,782  INFO Counter:70 [PopulationWriter] dumped person # 2
2019-09-18 11:38:52,783  INFO Counter:70 [PopulationWriter] dumped person # 4
2019-09-18 11:38:52,784  INFO Counter:70 [PopulationWriter] dumped person # 8
2019-09-18 11:38:52,786  INFO Counter:70 [PopulationWriter] dumped person # 16
2019-09-18 11:38:52,791  INFO Counter:70 [PopulationWriter] dumped person # 32
2019-09-18 11:38:52,803  INFO Counter:70 [PopulationWriter] dumped person # 64
2019-09-18 11:38:52,814  INFO PopulationWriter:139 Population written to: ./output/ITERS/it.0/0.plans.xml.gz
2019-09-18 11:38:52,817  INFO Counter:76 [PopulationWriter] dumped person # 100
2019-09-18 11:38:52,817  INFO PlansDumpingImpl:93 finished plans dump.
2019-09-18 11:38:52,818  INFO ControlerListenerManagerImpl:229 calling notifyBeforeMobsim on org.matsim.core.population.VspPlansCleaner
2019-09-18 11:38:52,819  INFO ControlerListenerManagerImpl:232 [it.0] all ControlerBeforeMobsimListeners called.
2019-09-18 11:38:52,823 DEBUG NetworkRoutingProvider:75 requesting network routing module with routingMode=car;	mode=car
2019-09-18 11:38:52,824 DEBUG NetworkRoutingProvider:75 requesting network routing module with routingMode=car;	mode=car
2019-09-18 11:38:52,825  INFO Counter:70 [PersonPrepareForSim] handled person # 2
2019-09-18 11:38:52,825  INFO Counter:70 [PersonPrepareForSim] handled person # 4
2019-09-18 11:38:52,825  INFO Counter:70 [PersonPrepareForSim] handled person # 1
2019-09-18 11:38:52,826  INFO Counter:70 [PersonPrepareForSim] handled person # 8
2019-09-18 11:38:52,827  INFO Counter:70 [PersonPrepareForSim] handled person # 32
2019-09-18 11:38:52,826  INFO Counter:70 [PersonPrepareForSim] handled person # 16
2019-09-18 11:38:52,828  INFO Counter:70 [PersonPrepareForSim] handled person # 64
2019-09-18 11:38:52,830  INFO Counter:76 [PersonPrepareForSim] handled person # 100
2019-09-18 11:38:52,962  INFO MobsimListenerManager:49 calling addQueueSimulationListener
2019-09-18 11:38:52,962  INFO MobsimListenerManager:53   assigned class org.matsim.core.mobsim.framework.listeners.MobsimListener to interface org.matsim.core.mobsim.framework.listeners.MobsimInitializedListener
2019-09-18 11:38:52,964  INFO MobsimListenerManager:53   assigned class org.matsim.core.mobsim.framework.listeners.MobsimListener to interface org.matsim.core.mobsim.framework.listeners.MobsimListener
2019-09-18 11:38:52,964  INFO MobsimListenerManager:53   assigned class org.matsim.core.mobsim.framework.listeners.MobsimListener to interface org.matsim.core.mobsim.framework.listeners.MobsimAfterSimStepListener
2019-09-18 11:38:52,965  INFO MobsimListenerManager:53   assigned class org.matsim.core.mobsim.framework.listeners.MobsimListener to interface org.matsim.core.mobsim.framework.listeners.MobsimBeforeCleanupListener
2019-09-18 11:38:52,966  INFO MobsimListenerManager:53   assigned class org.matsim.core.mobsim.framework.listeners.MobsimListener to interface org.matsim.vis.snapshotwriters.SnapshotWriterManager
2019-09-18 11:38:52,985  WARN QueueWithBuffer:378 Link 1 too small: enlarge storage capacity from: 1333.3333333333333 Vehicles to: 3599.712023038157 Vehicles.  This is not fatal, but modifies the traffic flow dynamics.
2019-09-18 11:38:52,990  WARN QueueWithBuffer:378 Link 20 too small: enlarge storage capacity from: 1333.3333333333333 Vehicles to: 3599.712023038157 Vehicles.  This is not fatal, but modifies the traffic flow dynamics.
2019-09-18 11:38:52,990  WARN QueueWithBuffer:378 Link 21 too small: enlarge storage capacity from: 1333.3333333333333 Vehicles to: 3599.712023038157 Vehicles.  This is not fatal, but modifies the traffic flow dynamics.
2019-09-18 11:38:52,993  WARN QueueWithBuffer:378 Link 22 too small: enlarge storage capacity from: 4666.666666666667 Vehicles to: 12598.99208063355 Vehicles.  This is not fatal, but modifies the traffic flow dynamics.
2019-09-18 11:38:52,994  WARN QueueWithBuffer:378 Link 23 too small: enlarge storage capacity from: 1333.3333333333333 Vehicles to: 3599.712023038157 Vehicles.  This is not fatal, but modifies the traffic flow dynamics.
2019-09-18 11:38:53,000  INFO QSimProvider:111 Added MobsimEngine class org.matsim.core.mobsim.qsim.ActivityEngine
2019-09-18 11:38:53,000  INFO QSimProvider:117 Added Activityhandler class org.matsim.core.mobsim.qsim.ActivityEngine
2019-09-18 11:38:53,002  INFO QSimProvider:123 Added DepartureHandler class org.matsim.core.mobsim.qsim.qnetsimengine.VehicularDepartureHandler
2019-09-18 11:38:53,002  INFO QSimProvider:111 Added MobsimEngine class org.matsim.core.mobsim.qsim.qnetsimengine.QNetsimEngine
2019-09-18 11:38:53,003  INFO QSimProvider:111 Added MobsimEngine class org.matsim.core.mobsim.qsim.DefaultTeleportationEngine
2019-09-18 11:38:53,003  INFO QSimProvider:123 Added DepartureHandler class org.matsim.core.mobsim.qsim.DefaultTeleportationEngine
2019-09-18 11:38:53,004  INFO QSimProvider:129 Added AgentSource class org.matsim.core.mobsim.qsim.agents.PopulationAgentSource
2019-09-18 11:38:53,005  INFO MobsimListenerManager:49 calling addQueueSimulationListener
2019-09-18 11:38:53,005  INFO MobsimListenerManager:53   assigned class org.matsim.core.mobsim.framework.listeners.MobsimListener to interface org.matsim.core.mobsim.framework.listeners.MobsimBeforeSimStepListener
2019-09-18 11:38:53,005  INFO MobsimListenerManager:53   assigned class org.matsim.core.mobsim.framework.listeners.MobsimListener to interface org.matsim.core.mobsim.qsim.messagequeueengine.MessageQueueEngine
2019-09-18 11:38:53,005  INFO MobsimListenerManager:53   assigned class org.matsim.core.mobsim.framework.listeners.MobsimListener to interface org.matsim.core.mobsim.framework.listeners.MobsimListener
2019-09-18 11:38:53,005  INFO QSimProvider:135 Added MobsimListener class org.matsim.core.mobsim.qsim.messagequeueengine.MessageQueueEngine
2019-09-18 11:38:53,023  INFO QNetsimEngine:506 Assigned 15 nodes and 23 links to QSimEngineRunner #0
2019-09-18 11:38:53,027  INFO EventsManagerImpl:134  event # 1
2019-09-18 11:38:53,033  INFO QNetsimEngine:346 SIMULATION (QNetsimEngine) AT 05:58:30 : #links=0 #nodes=1
2019-09-18 11:38:53,033  INFO QSim:505 SIMULATION (NEW QSim) AT 05:58:30 : #Veh=100 lost=0 simT=0.0s realT=0s; (s/r): 0.0
2019-09-18 11:38:53,033  INFO EventsManagerImpl:134  event # 4
2019-09-18 11:38:53,034  INFO Gbl:58 used RAM: 58372264B = 57004kB = 55MB  free: 207966040B = 198MB  total: 266338304B = 254MB
2019-09-18 11:38:53,055  INFO EventsManagerImpl:134  event # 16
2019-09-18 11:38:53,068  INFO EventsManagerImpl:134  event # 64
2019-09-18 11:38:53,078  INFO QNetsimEngine:346 SIMULATION (QNetsimEngine) AT 06:00:00 : #links=2 #nodes=1
2019-09-18 11:38:53,078  INFO QSim:505 SIMULATION (NEW QSim) AT 06:00:00 : #Veh=100 lost=0 simT=90.0s realT=0s; (s/r): Infinity
2019-09-18 11:38:53,078  INFO Gbl:58 used RAM: 58372264B = 57004kB = 55MB  free: 207966040B = 198MB  total: 266338304B = 254MB
2019-09-18 11:38:53,081  INFO EventsManagerImpl:134  event # 256
2019-09-18 11:38:53,249  INFO EventsManagerImpl:134  event # 1024
2019-09-18 11:38:53,570  INFO QNetsimEngine:346 SIMULATION (QNetsimEngine) AT 07:00:00 : #links=1 #nodes=0
2019-09-18 11:38:53,571  INFO QSim:505 SIMULATION (NEW QSim) AT 07:00:00 : #Veh=100 lost=0 simT=3690.0s realT=0s; (s/r): Infinity
2019-09-18 11:38:53,571  INFO Gbl:58 used RAM: 63615144B = 62124kB = 60MB  free: 202723160B = 193MB  total: 266338304B = 254MB
2019-09-18 11:38:53,927  INFO QNetsimEngine:346 SIMULATION (QNetsimEngine) AT 08:00:00 : #links=1 #nodes=0
2019-09-18 11:38:53,927  INFO QSim:505 SIMULATION (NEW QSim) AT 08:00:00 : #Veh=5 lost=0 simT=7290.0s realT=0s; (s/r): Infinity
2019-09-18 11:38:53,928  INFO Gbl:58 used RAM: 66760872B = 65196kB = 63MB  free: 199577432B = 190MB  total: 266338304B = 254MB
2019-09-18 11:38:54,238  INFO QNetsimEngine:346 SIMULATION (QNetsimEngine) AT 09:00:00 : #links=1 #nodes=0
2019-09-18 11:38:54,239  INFO QSim:505 SIMULATION (NEW QSim) AT 09:00:00 : #Veh=4 lost=0 simT=10890.0s realT=1s; (s/r): 10890.0
2019-09-18 11:38:54,239  INFO Gbl:58 used RAM: 68858024B = 67244kB = 65MB  free: 197480280B = 188MB  total: 266338304B = 254MB
2019-09-18 11:38:54,571  INFO QNetsimEngine:346 SIMULATION (QNetsimEngine) AT 10:00:00 : #links=0 #nodes=0
2019-09-18 11:38:54,571  INFO QSim:505 SIMULATION (NEW QSim) AT 10:00:00 : #Veh=2 lost=0 simT=14490.0s realT=1s; (s/r): 14490.0
2019-09-18 11:38:54,572  INFO Gbl:58 used RAM: 70432936B = 68782kB = 67MB  free: 195905368B = 186MB  total: 266338304B = 254MB
2019-09-18 11:38:54,920  INFO QNetsimEngine:346 SIMULATION (QNetsimEngine) AT 11:00:00 : #links=0 #nodes=0
2019-09-18 11:38:54,920  INFO QSim:505 SIMULATION (NEW QSim) AT 11:00:00 : #Veh=1 lost=0 simT=18090.0s realT=1s; (s/r): 18090.0
2019-09-18 11:38:54,920  INFO Gbl:58 used RAM: 73052328B = 71340kB = 69MB  free: 193285976B = 184MB  total: 266338304B = 254MB
2019-09-18 11:38:55,248  INFO QNetsimEngine:346 SIMULATION (QNetsimEngine) AT 12:00:00 : #links=0 #nodes=0
2019-09-18 11:38:55,250  INFO QSim:505 SIMULATION (NEW QSim) AT 12:00:00 : #Veh=1 lost=0 simT=21690.0s realT=2s; (s/r): 10845.0
2019-09-18 11:38:55,250  INFO Gbl:58 used RAM: 74627240B = 72878kB = 71MB  free: 191711064B = 182MB  total: 266338304B = 254MB
2019-09-18 11:38:55,601  INFO QNetsimEngine:346 SIMULATION (QNetsimEngine) AT 13:00:00 : #links=1 #nodes=0
2019-09-18 11:38:55,601  INFO QSim:505 SIMULATION (NEW QSim) AT 13:00:00 : #Veh=1 lost=0 simT=25290.0s realT=2s; (s/r): 12645.0
2019-09-18 11:38:55,602  INFO Gbl:58 used RAM: 76198056B = 74412kB = 72MB  free: 190140248B = 181MB  total: 266338304B = 254MB
2019-09-18 11:38:55,751  INFO Gbl:191 Thread performance: Thread=class org.matsim.core.events.SimStepParallelEventsManagerImpl$ProcessEventsRunnable0  cpu-time=0.625sec
2019-09-18 11:38:55,751  INFO AbstractController$9:220 ### ITERATION 0 fires after mobsim event
2019-09-18 11:38:55,752  INFO ControlerListenerManagerImpl:248 calling notifyAfterMobsim on org.matsim.analysis.LegTimesControlerListener
2019-09-18 11:38:55,753  INFO LegTimesControlerListener:50 [0] average trip (probably: leg) duration is: 1695 seconds = 00:28:15
2019-09-18 11:38:55,753  INFO ControlerListenerManagerImpl:248 calling notifyAfterMobsim on org.matsim.core.scoring.EventsToActivities$1
2019-09-18 11:38:55,755  INFO ControlerListenerManagerImpl:251 [it.0] all ControlerAfterMobsimListeners called.
2019-09-18 11:38:55,756  INFO AbstractController$4:149 ### ITERATION 0 fires scoring event
2019-09-18 11:38:55,756  INFO ControlerListenerManagerImpl:183 calling notifyScoring on org.matsim.core.scoring.PlansScoringImpl
2019-09-18 11:38:55,757  INFO NewScoreAssignerImpl:36 it: 0 msaStart: null
2019-09-18 11:38:55,758  INFO ControlerListenerManagerImpl:194 [it.0] all ControlerScoringListeners called.
2019-09-18 11:38:55,758  INFO AbstractController$5:157 ### ITERATION 0 fires iteration end event
2019-09-18 11:38:55,758  INFO ControlerListenerManagerImpl:160 calling notifyIterationEnds on org.matsim.core.controler.corelisteners.EventsHandlingImpl
2019-09-18 11:38:55,762  INFO EventsManagerImpl:161 removing Event-Handler: org.matsim.core.events.algorithms.EventWriterXML
2019-09-18 11:38:55,762  INFO EventsManagerImpl:161 removing Event-Handler: org.matsim.core.events.algorithms.EventWriterXML
2019-09-18 11:38:55,764  INFO ControlerListenerManagerImpl:160 calling notifyIterationEnds on org.matsim.core.scoring.PlansScoringImpl
2019-09-18 11:38:55,764  INFO ControlerListenerManagerImpl:167 calling notifyIterationEnds on org.matsim.counts.CountsControlerListener
2019-09-18 11:38:55,764  INFO ControlerListenerManagerImpl:167 calling notifyIterationEnds on org.matsim.analysis.ModeStatsControlerListener
2019-09-18 11:38:55,765  INFO ModeStatsControlerListener:155 -- mode share of mode bike = 0.0
2019-09-18 11:38:55,766  INFO ModeStatsControlerListener:155 -- mode share of mode car = 1.0
2019-09-18 11:38:55,766  INFO ModeStatsControlerListener:155 -- mode share of mode other = 0.0
2019-09-18 11:38:55,766  INFO ModeStatsControlerListener:155 -- mode share of mode pt = 0.0
2019-09-18 11:38:55,766  INFO ModeStatsControlerListener:155 -- mode share of mode ride = 0.0
2019-09-18 11:38:55,766  INFO ModeStatsControlerListener:155 -- mode share of mode walk = 0.0
2019-09-18 11:38:55,767  INFO ControlerListenerManagerImpl:167 calling notifyIterationEnds on org.matsim.analysis.ScoreStatsControlerListener
2019-09-18 11:38:55,767  INFO ScoreStatsControlerListener:191 -- avg. score of the executed plan of each agent: 64.75686659291274
2019-09-18 11:38:55,767  INFO ScoreStatsControlerListener:192 -- avg. score of the worst plan of each agent: 64.75686659291274
2019-09-18 11:38:55,768  INFO ScoreStatsControlerListener:193 -- avg. of the avg. plan score per agent: 64.75686659291274
2019-09-18 11:38:55,768  INFO ScoreStatsControlerListener:194 -- avg. score of the best plan of each agent: 64.75686659291274
2019-09-18 11:38:55,768  INFO ControlerListenerManagerImpl:167 calling notifyIterationEnds on org.matsim.analysis.TravelDistanceStatsControlerListener
2019-09-18 11:38:55,769  INFO TravelDistanceStats:128 [TravelDistanceStats] using 2 thread(s).
2019-09-18 11:38:55,770  INFO TravelDistanceStats:141 [TravelDistanceStats] all threads finished.
2019-09-18 11:38:55,770  INFO TravelDistanceStats:161 -- average of the average leg distance per plan (executed plans only): 44850.0
2019-09-18 11:38:55,770  INFO TravelDistanceStats:162 (TravelDistanceStats takes an average over all legs where the simulation reports travelled distances. These are car legs, pt legs,
2019-09-18 11:38:55,770  INFO TravelDistanceStats:163 (and teleported legs whose route contains a distance.)
2019-09-18 11:38:55,770  INFO ControlerListenerManagerImpl:167 calling notifyIterationEnds on org.matsim.analysis.LegHistogramListener
2019-09-18 11:38:55,774  INFO LegHistogramListener:72 number of legs:	201	100%
2019-09-18 11:38:55,774  INFO LegHistogramListener:79 number of car legs:	201	100.0%
2019-09-18 11:38:57,343  INFO ControlerListenerManagerImpl:167 calling notifyIterationEnds on org.matsim.analysis.LinkStatsControlerListener
2019-09-18 11:38:57,343  INFO ControlerListenerManagerImpl:171 [it.0] all ControlerIterationEndsListeners called.
2019-09-18 11:38:57,654  INFO AbstractController:167 ### ITERATION 0 ENDS
2019-09-18 11:38:57,655  INFO AbstractController:168 ###################################################
2019-09-18 11:38:57,655  INFO AbstractController:123 ###################################################
2019-09-18 11:38:57,655  INFO AbstractController:124 ### ITERATION 1 BEGINS
2019-09-18 11:38:57,656  INFO ControlerListenerManagerImpl:145 calling notifyIterationStarts on org.matsim.analysis.LegHistogramListener
2019-09-18 11:38:57,656  INFO ControlerListenerManagerImpl:145 calling notifyIterationStarts on org.matsim.analysis.LinkStatsControlerListener
2019-09-18 11:38:57,656  INFO ControlerListenerManagerImpl:145 calling notifyIterationStarts on org.matsim.core.replanning.ReplanningContextImpl
2019-09-18 11:38:57,656  INFO ControlerListenerManagerImpl:145 calling notifyIterationStarts on org.matsim.core.scoring.ExperiencedPlansServiceImpl$1
2019-09-18 11:38:57,657  INFO ControlerListenerManagerImpl:145 calling notifyIterationStarts on org.matsim.core.scoring.ScoringFunctionsForPopulation$1
2019-09-18 11:38:57,658  INFO ControlerListenerManagerImpl:148 [it.1] all ControlerIterationStartsListeners called.
2019-09-18 11:38:57,659  INFO ControlerListenerManagerImpl:205 calling notifyReplanning on org.matsim.core.controler.corelisteners.PlansReplanningImpl
2019-09-18 11:38:57,660 DEBUG NetworkRoutingProvider:75 requesting network routing module with routingMode=car;	mode=car
2019-09-18 11:38:57,660 DEBUG NetworkRoutingProvider:75 requesting network routing module with routingMode=car;	mode=car
2019-09-18 11:38:57,663  INFO GenericPlanStrategyImpl:125 Plan-Strategy finished, 89 plans handled. Strategy: BestPlanSelector
2019-09-18 11:38:57,663  INFO AbstractMultithreadedModule:141 [PlanRouter] starting 2 threads, handling 11 plans
2019-09-18 11:38:57,674  INFO Counter:70 [PlanRouter] handled plan # 1
2019-09-18 11:38:57,674  INFO Counter:70 [PlanRouter] handled plan # 2
2019-09-18 11:38:57,675  INFO Counter:70 [PlanRouter] handled plan # 4
2019-09-18 11:38:57,677  INFO Counter:70 [PlanRouter] handled plan # 8
2019-09-18 11:38:57,678  INFO AbstractMultithreadedModule:156 [PlanRouter] all 2 threads finished.
2019-09-18 11:38:57,678  INFO GenericPlanStrategyImpl:125 Plan-Strategy finished, 11 plans handled. Strategy: RandomPlanSelector_ReRoute
2019-09-18 11:38:57,679  INFO ControlerListenerManagerImpl:213 [it.1] all ControlerReplanningListeners called.
2019-09-18 11:38:57,679  INFO ControlerListenerManagerImpl:224 calling notifyBeforeMobsim on org.matsim.core.controler.corelisteners.EventsHandlingImpl
2019-09-18 11:38:57,679  INFO EventsManagerImpl:170 resetting Event-Handlers
2019-09-18 11:38:57,679  INFO EventsManagerImpl:177   org.matsim.core.trafficmonitoring.TravelTimeCalculator
2019-09-18 11:38:57,680  INFO EventsManagerImpl:177   org.matsim.core.scoring.EventsToLegsAndActivities
2019-09-18 11:38:57,680  INFO EventsManagerImpl:177   org.matsim.analysis.VolumesAnalyzer
2019-09-18 11:38:57,680  INFO EventsManagerImpl:177   org.matsim.core.events.algorithms.Vehicle2DriverEventHandler
2019-09-18 11:38:57,680  INFO EventsManagerImpl:177   org.matsim.core.scoring.ScoringFunctionsForPopulation
2019-09-18 11:38:57,681  INFO EventsManagerImpl:177   org.matsim.analysis.LegHistogram
2019-09-18 11:38:57,681  INFO EventsManagerImpl:177   org.matsim.analysis.CalcLegTimes
2019-09-18 11:38:57,681  INFO ControlerListenerManagerImpl:224 calling notifyBeforeMobsim on org.matsim.core.controler.corelisteners.PlansDumpingImpl
2019-09-18 11:38:57,681  INFO PlansDumpingImpl:76 dumping plans...
2019-09-18 11:38:57,683  INFO Counter:70 [PopulationWriter] dumped person # 1
2019-09-18 11:38:57,684  INFO Counter:70 [PopulationWriter] dumped person # 2
2019-09-18 11:38:57,686  INFO Counter:70 [PopulationWriter] dumped person # 4
2019-09-18 11:38:57,686  INFO Counter:70 [PopulationWriter] dumped person # 8
2019-09-18 11:38:57,687  INFO Counter:70 [PopulationWriter] dumped person # 16
2019-09-18 11:38:57,689  INFO Counter:70 [PopulationWriter] dumped person # 32
2019-09-18 11:38:57,692  INFO Counter:70 [PopulationWriter] dumped person # 64
2019-09-18 11:38:57,696  INFO PopulationWriter:139 Population written to: ./output/ITERS/it.1/1.plans.xml.gz
2019-09-18 11:38:57,705  INFO Counter:76 [PopulationWriter] dumped person # 100
2019-09-18 11:38:57,705  INFO PlansDumpingImpl:93 finished plans dump.
2019-09-18 11:38:57,705  INFO ControlerListenerManagerImpl:229 calling notifyBeforeMobsim on org.matsim.core.population.VspPlansCleaner
2019-09-18 11:38:57,706  INFO ControlerListenerManagerImpl:232 [it.1] all ControlerBeforeMobsimListeners called.
2019-09-18 11:38:57,706 DEBUG NetworkRoutingProvider:75 requesting network routing module with routingMode=car;	mode=car
2019-09-18 11:38:57,707 DEBUG NetworkRoutingProvider:75 requesting network routing module with routingMode=car;	mode=car
2019-09-18 11:38:57,708  INFO Counter:70 [PersonPrepareForSim] handled person # 1
2019-09-18 11:38:57,708  INFO Counter:70 [PersonPrepareForSim] handled person # 2
2019-09-18 11:38:57,708  INFO Counter:70 [PersonPrepareForSim] handled person # 4
2019-09-18 11:38:57,708  INFO Counter:70 [PersonPrepareForSim] handled person # 8
2019-09-18 11:38:57,708  INFO Counter:70 [PersonPrepareForSim] handled person # 16
2019-09-18 11:38:57,709  INFO Counter:70 [PersonPrepareForSim] handled person # 32
2019-09-18 11:38:57,709  INFO Counter:70 [PersonPrepareForSim] handled person # 64
2019-09-18 11:38:57,709  INFO Counter:76 [PersonPrepareForSim] handled person # 100
2019-09-18 11:38:57,744  INFO MobsimListenerManager:49 calling addQueueSimulationListener
2019-09-18 11:38:57,745  INFO MobsimListenerManager:53   assigned class org.matsim.core.mobsim.framework.listeners.MobsimListener to interface org.matsim.core.mobsim.framework.listeners.MobsimInitializedListener
2019-09-18 11:38:57,746  INFO MobsimListenerManager:53   assigned class org.matsim.core.mobsim.framework.listeners.MobsimListener to interface org.matsim.core.mobsim.framework.listeners.MobsimListener
2019-09-18 11:38:57,746  INFO MobsimListenerManager:53   assigned class org.matsim.core.mobsim.framework.listeners.MobsimListener to interface org.matsim.core.mobsim.framework.listeners.MobsimAfterSimStepListener
2019-09-18 11:38:57,747  INFO MobsimListenerManager:53   assigned class org.matsim.core.mobsim.framework.listeners.MobsimListener to interface org.matsim.core.mobsim.framework.listeners.MobsimBeforeCleanupListener
2019-09-18 11:38:57,748  INFO MobsimListenerManager:53   assigned class org.matsim.core.mobsim.framework.listeners.MobsimListener to interface org.matsim.vis.snapshotwriters.SnapshotWriterManager
2019-09-18 11:38:57,749  WARN QueueWithBuffer:378 Link 1 too small: enlarge storage capacity from: 1333.3333333333333 Vehicles to: 3599.712023038157 Vehicles.  This is not fatal, but modifies the traffic flow dynamics.
2019-09-18 11:38:57,750  WARN QueueWithBuffer:378 Link 20 too small: enlarge storage capacity from: 1333.3333333333333 Vehicles to: 3599.712023038157 Vehicles.  This is not fatal, but modifies the traffic flow dynamics.
2019-09-18 11:38:57,751  WARN QueueWithBuffer:378 Link 21 too small: enlarge storage capacity from: 1333.3333333333333 Vehicles to: 3599.712023038157 Vehicles.  This is not fatal, but modifies the traffic flow dynamics.
2019-09-18 11:38:57,751  WARN QueueWithBuffer:378 Link 22 too small: enlarge storage capacity from: 4666.666666666667 Vehicles to: 12598.99208063355 Vehicles.  This is not fatal, but modifies the traffic flow dynamics.
2019-09-18 11:38:57,752  WARN QueueWithBuffer:378 Link 23 too small: enlarge storage capacity from: 1333.3333333333333 Vehicles to: 3599.712023038157 Vehicles.  This is not fatal, but modifies the traffic flow dynamics.
2019-09-18 11:38:57,755  INFO QSimProvider:111 Added MobsimEngine class org.matsim.core.mobsim.qsim.ActivityEngine
2019-09-18 11:38:57,755  INFO QSimProvider:117 Added Activityhandler class org.matsim.core.mobsim.qsim.ActivityEngine
2019-09-18 11:38:57,756  INFO QSimProvider:123 Added DepartureHandler class org.matsim.core.mobsim.qsim.qnetsimengine.VehicularDepartureHandler
2019-09-18 11:38:57,756  INFO QSimProvider:111 Added MobsimEngine class org.matsim.core.mobsim.qsim.qnetsimengine.QNetsimEngine
2019-09-18 11:38:57,756  INFO QSimProvider:111 Added MobsimEngine class org.matsim.core.mobsim.qsim.DefaultTeleportationEngine
2019-09-18 11:38:57,757  INFO QSimProvider:123 Added DepartureHandler class org.matsim.core.mobsim.qsim.DefaultTeleportationEngine
2019-09-18 11:38:57,757  INFO QSimProvider:129 Added AgentSource class org.matsim.core.mobsim.qsim.agents.PopulationAgentSource
2019-09-18 11:38:57,757  INFO MobsimListenerManager:49 calling addQueueSimulationListener
2019-09-18 11:38:57,758  INFO MobsimListenerManager:53   assigned class org.matsim.core.mobsim.framework.listeners.MobsimListener to interface org.matsim.core.mobsim.framework.listeners.MobsimBeforeSimStepListener
2019-09-18 11:38:57,758  INFO MobsimListenerManager:53   assigned class org.matsim.core.mobsim.framework.listeners.MobsimListener to interface org.matsim.core.mobsim.qsim.messagequeueengine.MessageQueueEngine
2019-09-18 11:38:57,758  INFO MobsimListenerManager:53   assigned class org.matsim.core.mobsim.framework.listeners.MobsimListener to interface org.matsim.core.mobsim.framework.listeners.MobsimListener
2019-09-18 11:38:57,759  INFO QSimProvider:135 Added MobsimListener class org.matsim.core.mobsim.qsim.messagequeueengine.MessageQueueEngine
2019-09-18 11:38:57,760  INFO QNetsimEngine:506 Assigned 15 nodes and 23 links to QSimEngineRunner #0
2019-09-18 11:38:57,765  INFO QNetsimEngine:346 SIMULATION (QNetsimEngine) AT 05:58:30 : #links=0 #nodes=1
2019-09-18 11:38:57,766  INFO QSim:505 SIMULATION (NEW QSim) AT 05:58:30 : #Veh=100 lost=0 simT=0.0s realT=0s; (s/r): 0.0
2019-09-18 11:38:57,766  INFO Gbl:58 used RAM: 139112616B = 135852kB = 132MB  free: 127225688B = 121MB  total: 266338304B = 254MB
2019-09-18 11:38:57,783  INFO QNetsimEngine:346 SIMULATION (QNetsimEngine) AT 06:00:00 : #links=2 #nodes=1
2019-09-18 11:38:57,783  INFO QSim:505 SIMULATION (NEW QSim) AT 06:00:00 : #Veh=100 lost=0 simT=90.0s realT=0s; (s/r): Infinity
2019-09-18 11:38:57,783  INFO Gbl:58 used RAM: 139638952B = 136366kB = 133MB  free: 126699352B = 120MB  total: 266338304B = 254MB
2019-09-18 11:38:57,890  INFO EventsManagerImpl:134  event # 4096
2019-09-18 11:38:58,145  INFO QNetsimEngine:346 SIMULATION (QNetsimEngine) AT 07:00:00 : #links=1 #nodes=0
2019-09-18 11:38:58,146  INFO QSim:505 SIMULATION (NEW QSim) AT 07:00:00 : #Veh=100 lost=0 simT=3690.0s realT=0s; (s/r): Infinity
2019-09-18 11:38:58,146  INFO Gbl:58 used RAM: 142258344B = 138924kB = 135MB  free: 124079960B = 118MB  total: 266338304B = 254MB
2019-09-18 11:38:58,474  INFO QNetsimEngine:346 SIMULATION (QNetsimEngine) AT 08:00:00 : #links=1 #nodes=0
2019-09-18 11:38:58,474  INFO QSim:505 SIMULATION (NEW QSim) AT 08:00:00 : #Veh=5 lost=0 simT=7290.0s realT=0s; (s/r): Infinity
2019-09-18 11:38:58,474  INFO Gbl:58 used RAM: 144355496B = 140972kB = 137MB  free: 121982808B = 116MB  total: 266338304B = 254MB
2019-09-18 11:38:58,805  INFO QNetsimEngine:346 SIMULATION (QNetsimEngine) AT 09:00:00 : #links=1 #nodes=0
2019-09-18 11:38:58,805  INFO QSim:505 SIMULATION (NEW QSim) AT 09:00:00 : #Veh=4 lost=0 simT=10890.0s realT=1s; (s/r): 10890.0
2019-09-18 11:38:58,805  INFO Gbl:58 used RAM: 146452648B = 143020kB = 139MB  free: 119885656B = 114MB  total: 266338304B = 254MB
2019-09-18 11:38:59,174  INFO QNetsimEngine:346 SIMULATION (QNetsimEngine) AT 10:00:00 : #links=0 #nodes=0
2019-09-18 11:38:59,175  INFO QSim:505 SIMULATION (NEW QSim) AT 10:00:00 : #Veh=2 lost=0 simT=14490.0s realT=1s; (s/r): 14490.0
2019-09-18 11:38:59,175  INFO Gbl:58 used RAM: 148549800B = 145068kB = 141MB  free: 117788504B = 112MB  total: 266338304B = 254MB
2019-09-18 11:38:59,538  INFO QNetsimEngine:346 SIMULATION (QNetsimEngine) AT 11:00:00 : #links=0 #nodes=0
2019-09-18 11:38:59,539  INFO QSim:505 SIMULATION (NEW QSim) AT 11:00:00 : #Veh=1 lost=0 simT=18090.0s realT=1s; (s/r): 18090.0
2019-09-18 11:38:59,539  INFO Gbl:58 used RAM: 150646952B = 147116kB = 143MB  free: 115691352B = 110MB  total: 266338304B = 254MB
2019-09-18 11:38:59,876  INFO QNetsimEngine:346 SIMULATION (QNetsimEngine) AT 12:00:00 : #links=0 #nodes=0
2019-09-18 11:38:59,876  INFO QSim:505 SIMULATION (NEW QSim) AT 12:00:00 : #Veh=1 lost=0 simT=21690.0s realT=2s; (s/r): 10845.0
2019-09-18 11:38:59,876  INFO Gbl:58 used RAM: 152744104B = 149164kB = 145MB  free: 113594200B = 108MB  total: 266338304B = 254MB
2019-09-18 11:39:00,225  INFO QNetsimEngine:346 SIMULATION (QNetsimEngine) AT 13:00:00 : #links=1 #nodes=0
2019-09-18 11:39:00,225  INFO QSim:505 SIMULATION (NEW QSim) AT 13:00:00 : #Veh=1 lost=0 simT=25290.0s realT=2s; (s/r): 12645.0
2019-09-18 11:39:00,225  INFO Gbl:58 used RAM: 154319016B = 150702kB = 147MB  free: 112019288B = 106MB  total: 266338304B = 254MB
2019-09-18 11:39:00,384  INFO AbstractController$9:220 ### ITERATION 1 fires after mobsim event
2019-09-18 11:39:00,384  INFO Gbl:191 Thread performance: Thread=class org.matsim.core.events.SimStepParallelEventsManagerImpl$ProcessEventsRunnable0  cpu-time=0.46875sec
2019-09-18 11:39:00,385  INFO ControlerListenerManagerImpl:248 calling notifyAfterMobsim on org.matsim.analysis.LegTimesControlerListener
2019-09-18 11:39:00,386  INFO LegTimesControlerListener:50 [1] average trip (probably: leg) duration is: 1678 seconds = 00:27:58
2019-09-18 11:39:00,386  INFO ControlerListenerManagerImpl:248 calling notifyAfterMobsim on org.matsim.core.scoring.EventsToActivities$1
2019-09-18 11:39:00,387  INFO ControlerListenerManagerImpl:251 [it.1] all ControlerAfterMobsimListeners called.
2019-09-18 11:39:00,387  INFO AbstractController$4:149 ### ITERATION 1 fires scoring event
2019-09-18 11:39:00,387  INFO ControlerListenerManagerImpl:183 calling notifyScoring on org.matsim.core.scoring.PlansScoringImpl
2019-09-18 11:39:00,388  INFO NewScoreAssignerImpl:36 it: 1 msaStart: null
2019-09-18 11:39:00,388  INFO ControlerListenerManagerImpl:194 [it.1] all ControlerScoringListeners called.
2019-09-18 11:39:00,388  INFO AbstractController$5:157 ### ITERATION 1 fires iteration end event
2019-09-18 11:39:00,388  INFO ControlerListenerManagerImpl:160 calling notifyIterationEnds on org.matsim.core.controler.corelisteners.EventsHandlingImpl
2019-09-18 11:39:00,388  INFO ControlerListenerManagerImpl:160 calling notifyIterationEnds on org.matsim.core.scoring.PlansScoringImpl
2019-09-18 11:39:00,389  INFO ControlerListenerManagerImpl:167 calling notifyIterationEnds on org.matsim.counts.CountsControlerListener
2019-09-18 11:39:00,389  INFO ControlerListenerManagerImpl:167 calling notifyIterationEnds on org.matsim.analysis.ModeStatsControlerListener
2019-09-18 11:39:00,390  INFO ModeStatsControlerListener:155 -- mode share of mode bike = 0.0
2019-09-18 11:39:00,390  INFO ModeStatsControlerListener:155 -- mode share of mode car = 1.0
2019-09-18 11:39:00,390  INFO ModeStatsControlerListener:155 -- mode share of mode other = 0.0
2019-09-18 11:39:00,390  INFO ModeStatsControlerListener:155 -- mode share of mode pt = 0.0
2019-09-18 11:39:00,391  INFO ModeStatsControlerListener:155 -- mode share of mode ride = 0.0
2019-09-18 11:39:00,391  INFO ModeStatsControlerListener:155 -- mode share of mode walk = 0.0
2019-09-18 11:39:00,687  INFO ControlerListenerManagerImpl:167 calling notifyIterationEnds on org.matsim.analysis.ScoreStatsControlerListener
2019-09-18 11:39:00,687  INFO ScoreStatsControlerListener:191 -- avg. score of the executed plan of each agent: 64.84180132563583
2019-09-18 11:39:00,688  INFO ScoreStatsControlerListener:192 -- avg. score of the worst plan of each agent: 64.78366379257605
2019-09-18 11:39:00,689  INFO ScoreStatsControlerListener:193 -- avg. of the avg. plan score per agent: 64.81273255910591
2019-09-18 11:39:00,689  INFO ScoreStatsControlerListener:194 -- avg. score of the best plan of each agent: 64.84180132563583
2019-09-18 11:39:00,815  INFO ControlerListenerManagerImpl:167 calling notifyIterationEnds on org.matsim.analysis.TravelDistanceStatsControlerListener
2019-09-18 11:39:00,815  INFO TravelDistanceStats:128 [TravelDistanceStats] using 2 thread(s).
2019-09-18 11:39:00,816  INFO TravelDistanceStats:141 [TravelDistanceStats] all threads finished.
2019-09-18 11:39:00,816  INFO TravelDistanceStats:161 -- average of the average leg distance per plan (executed plans only): 44850.0
2019-09-18 11:39:00,816  INFO TravelDistanceStats:162 (TravelDistanceStats takes an average over all legs where the simulation reports travelled distances. These are car legs, pt legs,
2019-09-18 11:39:00,817  INFO TravelDistanceStats:163 (and teleported legs whose route contains a distance.)
2019-09-18 11:39:00,946  INFO ControlerListenerManagerImpl:167 calling notifyIterationEnds on org.matsim.analysis.LegHistogramListener
2019-09-18 11:39:00,948  INFO LegHistogramListener:72 number of legs:	201	100%
2019-09-18 11:39:00,948  INFO LegHistogramListener:79 number of car legs:	201	100.0%
2019-09-18 11:39:01,433  INFO ControlerListenerManagerImpl:167 calling notifyIterationEnds on org.matsim.analysis.LinkStatsControlerListener
2019-09-18 11:39:01,433  INFO ControlerListenerManagerImpl:171 [it.1] all ControlerIterationEndsListeners called.
2019-09-18 11:39:01,671  INFO AbstractController:167 ### ITERATION 1 ENDS
2019-09-18 11:39:01,671  INFO AbstractController:168 ###################################################
2019-09-18 11:39:01,671  INFO AbstractController:123 ###################################################
2019-09-18 11:39:01,671  INFO AbstractController:124 ### ITERATION 2 BEGINS
2019-09-18 11:39:01,672  INFO ControlerListenerManagerImpl:145 calling notifyIterationStarts on org.matsim.analysis.LegHistogramListener
2019-09-18 11:39:01,672  INFO ControlerListenerManagerImpl:145 calling notifyIterationStarts on org.matsim.analysis.LinkStatsControlerListener
2019-09-18 11:39:01,673  INFO ControlerListenerManagerImpl:145 calling notifyIterationStarts on org.matsim.core.replanning.ReplanningContextImpl
2019-09-18 11:39:01,673  INFO ControlerListenerManagerImpl:145 calling notifyIterationStarts on org.matsim.core.scoring.ExperiencedPlansServiceImpl$1
2019-09-18 11:39:01,673  INFO ControlerListenerManagerImpl:145 calling notifyIterationStarts on org.matsim.core.scoring.ScoringFunctionsForPopulation$1
2019-09-18 11:39:01,673  INFO ControlerListenerManagerImpl:148 [it.2] all ControlerIterationStartsListeners called.
2019-09-18 11:39:01,674  INFO ControlerListenerManagerImpl:205 calling notifyReplanning on org.matsim.core.controler.corelisteners.PlansReplanningImpl
2019-09-18 11:39:01,674 DEBUG NetworkRoutingProvider:75 requesting network routing module with routingMode=car;	mode=car
2019-09-18 11:39:01,674 DEBUG NetworkRoutingProvider:75 requesting network routing module with routingMode=car;	mode=car
2019-09-18 11:39:01,675  INFO GenericPlanStrategyImpl:125 Plan-Strategy finished, 89 plans handled. Strategy: BestPlanSelector
2019-09-18 11:39:01,675  INFO AbstractMultithreadedModule:141 [PlanRouter] starting 2 threads, handling 11 plans
2019-09-18 11:39:01,677  INFO Counter:70 [PlanRouter] handled plan # 1
2019-09-18 11:39:01,677  INFO Counter:70 [PlanRouter] handled plan # 2
2019-09-18 11:39:01,678  INFO Counter:70 [PlanRouter] handled plan # 4
2019-09-18 11:39:01,679  INFO Counter:70 [PlanRouter] handled plan # 8
2019-09-18 11:39:01,679  INFO AbstractMultithreadedModule:156 [PlanRouter] all 2 threads finished.
2019-09-18 11:39:01,680  INFO GenericPlanStrategyImpl:125 Plan-Strategy finished, 11 plans handled. Strategy: RandomPlanSelector_ReRoute
2019-09-18 11:39:01,680  INFO ControlerListenerManagerImpl:213 [it.2] all ControlerReplanningListeners called.
2019-09-18 11:39:01,680  INFO ControlerListenerManagerImpl:224 calling notifyBeforeMobsim on org.matsim.core.controler.corelisteners.EventsHandlingImpl
2019-09-18 11:39:01,680  INFO EventsManagerImpl:170 resetting Event-Handlers
2019-09-18 11:39:01,680  INFO EventsManagerImpl:177   org.matsim.core.trafficmonitoring.TravelTimeCalculator
2019-09-18 11:39:01,680  INFO EventsManagerImpl:177   org.matsim.core.scoring.EventsToLegsAndActivities
2019-09-18 11:39:01,680  INFO EventsManagerImpl:177   org.matsim.analysis.VolumesAnalyzer
2019-09-18 11:39:01,680  INFO EventsManagerImpl:177   org.matsim.core.events.algorithms.Vehicle2DriverEventHandler
2019-09-18 11:39:01,680  INFO EventsManagerImpl:177   org.matsim.core.scoring.ScoringFunctionsForPopulation
2019-09-18 11:39:01,681  INFO EventsManagerImpl:177   org.matsim.analysis.LegHistogram
[...]
2019-09-18 11:39:25,340  INFO EventsManagerImpl:156 
2019-09-18 11:39:25,340  INFO ControlerListenerManagerImpl:224 calling notifyBeforeMobsim on org.matsim.core.controler.corelisteners.PlansDumpingImpl
2019-09-18 11:39:25,340  INFO PlansDumpingImpl:76 dumping plans...
2019-09-18 11:39:25,344  INFO Counter:70 [PopulationWriter] dumped person # 1
2019-09-18 11:39:25,344  INFO Counter:70 [PopulationWriter] dumped person # 2
2019-09-18 11:39:25,346  INFO Counter:70 [PopulationWriter] dumped person # 4
2019-09-18 11:39:25,346  INFO Counter:70 [PopulationWriter] dumped person # 8
2019-09-18 11:39:25,348  INFO Counter:70 [PopulationWriter] dumped person # 16
2019-09-18 11:39:25,351  INFO Counter:70 [PopulationWriter] dumped person # 32
2019-09-18 11:39:25,355  INFO Counter:70 [PopulationWriter] dumped person # 64
2019-09-18 11:39:25,362  INFO PopulationWriter:139 Population written to: ./output/ITERS/it.10/10.plans.xml.gz
2019-09-18 11:39:25,373  INFO Counter:76 [PopulationWriter] dumped person # 100
2019-09-18 11:39:25,374  INFO PlansDumpingImpl:93 finished plans dump.
2019-09-18 11:39:25,374  INFO ControlerListenerManagerImpl:229 calling notifyBeforeMobsim on org.matsim.core.population.VspPlansCleaner
2019-09-18 11:39:25,375  INFO ControlerListenerManagerImpl:232 [it.10] all ControlerBeforeMobsimListeners called.
2019-09-18 11:39:25,376 DEBUG NetworkRoutingProvider:75 requesting network routing module with routingMode=car;	mode=car
2019-09-18 11:39:25,377 DEBUG NetworkRoutingProvider:75 requesting network routing module with routingMode=car;	mode=car
2019-09-18 11:39:25,378  INFO Counter:70 [PersonPrepareForSim] handled person # 1
2019-09-18 11:39:25,378  INFO Counter:70 [PersonPrepareForSim] handled person # 2
2019-09-18 11:39:25,378  INFO Counter:70 [PersonPrepareForSim] handled person # 4
2019-09-18 11:39:25,379  INFO Counter:70 [PersonPrepareForSim] handled person # 8
2019-09-18 11:39:25,379  INFO Counter:70 [PersonPrepareForSim] handled person # 16
2019-09-18 11:39:25,379  INFO Counter:70 [PersonPrepareForSim] handled person # 32
2019-09-18 11:39:25,380  INFO Counter:70 [PersonPrepareForSim] handled person # 64
2019-09-18 11:39:25,380  INFO Counter:76 [PersonPrepareForSim] handled person # 100
2019-09-18 11:39:25,408  INFO MobsimListenerManager:49 calling addQueueSimulationListener
2019-09-18 11:39:25,408  INFO MobsimListenerManager:53   assigned class org.matsim.core.mobsim.framework.listeners.MobsimListener to interface org.matsim.core.mobsim.framework.listeners.MobsimInitializedListener
2019-09-18 11:39:25,408  INFO MobsimListenerManager:53   assigned class org.matsim.core.mobsim.framework.listeners.MobsimListener to interface org.matsim.core.mobsim.framework.listeners.MobsimListener
2019-09-18 11:39:25,408  INFO MobsimListenerManager:53   assigned class org.matsim.core.mobsim.framework.listeners.MobsimListener to interface org.matsim.core.mobsim.framework.listeners.MobsimAfterSimStepListener
2019-09-18 11:39:25,408  INFO MobsimListenerManager:53   assigned class org.matsim.core.mobsim.framework.listeners.MobsimListener to interface org.matsim.core.mobsim.framework.listeners.MobsimBeforeCleanupListener
2019-09-18 11:39:25,408  INFO MobsimListenerManager:53   assigned class org.matsim.core.mobsim.framework.listeners.MobsimListener to interface org.matsim.vis.snapshotwriters.SnapshotWriterManager
2019-09-18 11:39:25,414  INFO QSimProvider:111 Added MobsimEngine class org.matsim.core.mobsim.qsim.ActivityEngine
2019-09-18 11:39:25,414  INFO QSimProvider:117 Added Activityhandler class org.matsim.core.mobsim.qsim.ActivityEngine
2019-09-18 11:39:25,415  INFO QSimProvider:123 Added DepartureHandler class org.matsim.core.mobsim.qsim.qnetsimengine.VehicularDepartureHandler
2019-09-18 11:39:25,416  INFO QSimProvider:111 Added MobsimEngine class org.matsim.core.mobsim.qsim.qnetsimengine.QNetsimEngine
2019-09-18 11:39:25,416  INFO QSimProvider:111 Added MobsimEngine class org.matsim.core.mobsim.qsim.DefaultTeleportationEngine
2019-09-18 11:39:25,417  INFO QSimProvider:123 Added DepartureHandler class org.matsim.core.mobsim.qsim.DefaultTeleportationEngine
2019-09-18 11:39:25,417  INFO QSimProvider:129 Added AgentSource class org.matsim.core.mobsim.qsim.agents.PopulationAgentSource
2019-09-18 11:39:25,418  INFO MobsimListenerManager:49 calling addQueueSimulationListener
2019-09-18 11:39:25,418  INFO MobsimListenerManager:53   assigned class org.matsim.core.mobsim.framework.listeners.MobsimListener to interface org.matsim.core.mobsim.framework.listeners.MobsimBeforeSimStepListener
2019-09-18 11:39:25,418  INFO MobsimListenerManager:53   assigned class org.matsim.core.mobsim.framework.listeners.MobsimListener to interface org.matsim.core.mobsim.qsim.messagequeueengine.MessageQueueEngine
2019-09-18 11:39:25,418  INFO MobsimListenerManager:53   assigned class org.matsim.core.mobsim.framework.listeners.MobsimListener to interface org.matsim.core.mobsim.framework.listeners.MobsimListener
2019-09-18 11:39:25,418  INFO QSimProvider:135 Added MobsimListener class org.matsim.core.mobsim.qsim.messagequeueengine.MessageQueueEngine
2019-09-18 11:39:25,420  INFO QNetsimEngine:506 Assigned 15 nodes and 23 links to QSimEngineRunner #0
2019-09-18 11:39:25,421  INFO QNetsimEngine:346 SIMULATION (QNetsimEngine) AT 05:58:30 : #links=0 #nodes=1
2019-09-18 11:39:25,421  INFO QSim:505 SIMULATION (NEW QSim) AT 05:58:30 : #Veh=100 lost=0 simT=0.0s realT=0s; (s/r): 0.0
2019-09-18 11:39:25,421  INFO Gbl:58 used RAM: 146801088B = 143360kB = 140MB  free: 119537216B = 113MB  total: 266338304B = 254MB
2019-09-18 11:39:25,435  INFO QNetsimEngine:346 SIMULATION (QNetsimEngine) AT 06:00:00 : #links=2 #nodes=1
2019-09-18 11:39:25,435  INFO QSim:505 SIMULATION (NEW QSim) AT 06:00:00 : #Veh=100 lost=0 simT=90.0s realT=0s; (s/r): Infinity
2019-09-18 11:39:25,435  INFO Gbl:58 used RAM: 147327424B = 143874kB = 140MB  free: 119010880B = 113MB  total: 266338304B = 254MB
2019-09-18 11:39:25,824  INFO QNetsimEngine:346 SIMULATION (QNetsimEngine) AT 07:00:00 : #links=1 #nodes=0
2019-09-18 11:39:25,824  INFO QSim:505 SIMULATION (NEW QSim) AT 07:00:00 : #Veh=100 lost=0 simT=3690.0s realT=0s; (s/r): Infinity
2019-09-18 11:39:25,824  INFO Gbl:58 used RAM: 149424576B = 145922kB = 142MB  free: 116913728B = 111MB  total: 266338304B = 254MB
2019-09-18 11:39:26,200  INFO QNetsimEngine:346 SIMULATION (QNetsimEngine) AT 08:00:00 : #links=1 #nodes=0
2019-09-18 11:39:26,200  INFO QSim:505 SIMULATION (NEW QSim) AT 08:00:00 : #Veh=5 lost=0 simT=7290.0s realT=0s; (s/r): Infinity
2019-09-18 11:39:26,200  INFO Gbl:58 used RAM: 152043968B = 148480kB = 145MB  free: 114294336B = 108MB  total: 266338304B = 254MB
2019-09-18 11:39:26,595  INFO QNetsimEngine:346 SIMULATION (QNetsimEngine) AT 09:00:00 : #links=1 #nodes=0
2019-09-18 11:39:26,597  INFO QSim:505 SIMULATION (NEW QSim) AT 09:00:00 : #Veh=4 lost=0 simT=10890.0s realT=1s; (s/r): 10890.0
2019-09-18 11:39:26,597  INFO Gbl:58 used RAM: 154667456B = 151042kB = 147MB  free: 111670848B = 106MB  total: 266338304B = 254MB
2019-09-18 11:39:26,954  INFO QNetsimEngine:346 SIMULATION (QNetsimEngine) AT 10:00:00 : #links=1 #nodes=0
2019-09-18 11:39:26,954  INFO QSim:505 SIMULATION (NEW QSim) AT 10:00:00 : #Veh=2 lost=0 simT=14490.0s realT=1s; (s/r): 14490.0
2019-09-18 11:39:26,954  INFO Gbl:58 used RAM: 156238272B = 152576kB = 149MB  free: 110100032B = 104MB  total: 266338304B = 254MB
2019-09-18 11:39:27,324  INFO QNetsimEngine:346 SIMULATION (QNetsimEngine) AT 11:00:00 : #links=0 #nodes=0
2019-09-18 11:39:27,324  INFO QSim:505 SIMULATION (NEW QSim) AT 11:00:00 : #Veh=1 lost=0 simT=18090.0s realT=1s; (s/r): 18090.0
2019-09-18 11:39:27,324  INFO Gbl:58 used RAM: 158335424B = 154624kB = 151MB  free: 108002880B = 102MB  total: 266338304B = 254MB
2019-09-18 11:39:27,717  INFO QNetsimEngine:346 SIMULATION (QNetsimEngine) AT 12:00:00 : #links=0 #nodes=0
2019-09-18 11:39:27,717  INFO QSim:505 SIMULATION (NEW QSim) AT 12:00:00 : #Veh=1 lost=0 simT=21690.0s realT=2s; (s/r): 10845.0
2019-09-18 11:39:27,717  INFO Gbl:58 used RAM: 160432576B = 156672kB = 153MB  free: 105905728B = 100MB  total: 266338304B = 254MB
2019-09-18 11:39:28,156  INFO QNetsimEngine:346 SIMULATION (QNetsimEngine) AT 13:00:00 : #links=1 #nodes=0
2019-09-18 11:39:28,157  INFO QSim:505 SIMULATION (NEW QSim) AT 13:00:00 : #Veh=1 lost=0 simT=25290.0s realT=2s; (s/r): 12645.0
2019-09-18 11:39:28,157  INFO Gbl:58 used RAM: 162007488B = 158210kB = 154MB  free: 104330816B = 99MB  total: 266338304B = 254MB
2019-09-18 11:39:28,321  INFO Gbl:191 Thread performance: Thread=class org.matsim.core.events.SimStepParallelEventsManagerImpl$ProcessEventsRunnable0  cpu-time=0.28125sec
2019-09-18 11:39:28,321  INFO AbstractController$9:220 ### ITERATION 10 fires after mobsim event
2019-09-18 11:39:28,322  INFO ControlerListenerManagerImpl:248 calling notifyAfterMobsim on org.matsim.analysis.LegTimesControlerListener
2019-09-18 11:39:28,323  INFO LegTimesControlerListener:50 [10] average trip (probably: leg) duration is: 1628 seconds = 00:27:08
2019-09-18 11:39:28,323  INFO ControlerListenerManagerImpl:248 calling notifyAfterMobsim on org.matsim.core.scoring.EventsToActivities$1
2019-09-18 11:39:28,323  INFO ControlerListenerManagerImpl:251 [it.10] all ControlerAfterMobsimListeners called.
2019-09-18 11:39:28,323  INFO AbstractController$4:149 ### ITERATION 10 fires scoring event
2019-09-18 11:39:28,324  INFO ControlerListenerManagerImpl:183 calling notifyScoring on org.matsim.core.scoring.PlansScoringImpl
2019-09-18 11:39:28,324  INFO NewScoreAssignerImpl:36 it: 10 msaStart: null
2019-09-18 11:39:28,324  INFO ControlerListenerManagerImpl:194 [it.10] all ControlerScoringListeners called.
2019-09-18 11:39:28,324  INFO AbstractController$5:157 ### ITERATION 10 fires iteration end event
2019-09-18 11:39:28,324  INFO ControlerListenerManagerImpl:160 calling notifyIterationEnds on org.matsim.core.controler.corelisteners.EventsHandlingImpl
2019-09-18 11:39:28,336  INFO EventsManagerImpl:161 removing Event-Handler: org.matsim.core.events.algorithms.EventWriterXML
2019-09-18 11:39:28,336  INFO EventsManagerImpl:161 removing Event-Handler: org.matsim.core.events.algorithms.EventWriterXML
2019-09-18 11:39:28,337  INFO ControlerListenerManagerImpl:160 calling notifyIterationEnds on org.matsim.core.scoring.PlansScoringImpl
2019-09-18 11:39:28,337  INFO ControlerListenerManagerImpl:167 calling notifyIterationEnds on org.matsim.counts.CountsControlerListener
2019-09-18 11:39:28,340  INFO CountSimComparisonTableWriter:93 Writing CountsSimComparison to ./output/ITERS/it.10/10.countscompare.txt
2019-09-18 11:39:28,346  INFO CountSimComparisonTableWriter:134 Writing 'average weekday traffic volume' to ./output/ITERS/it.10/10.countscompareAWTV.txt
2019-09-18 11:39:28,347  INFO ControlerListenerManagerImpl:167 calling notifyIterationEnds on org.matsim.analysis.ModeStatsControlerListener
2019-09-18 11:39:28,349  INFO ModeStatsControlerListener:155 -- mode share of mode bike = 0.0
2019-09-18 11:39:28,349  INFO ModeStatsControlerListener:155 -- mode share of mode car = 1.0
2019-09-18 11:39:28,349  INFO ModeStatsControlerListener:155 -- mode share of mode other = 0.0
2019-09-18 11:39:28,349  INFO ModeStatsControlerListener:155 -- mode share of mode pt = 0.0
2019-09-18 11:39:28,350  INFO ModeStatsControlerListener:155 -- mode share of mode ride = 0.0
2019-09-18 11:39:28,350  INFO ModeStatsControlerListener:155 -- mode share of mode walk = 0.0
2019-09-18 11:39:28,414  INFO ControlerListenerManagerImpl:167 calling notifyIterationEnds on org.matsim.analysis.ScoreStatsControlerListener
2019-09-18 11:39:28,415  INFO ScoreStatsControlerListener:191 -- avg. score of the executed plan of each agent: 65.0866398879971
2019-09-18 11:39:28,415  INFO ScoreStatsControlerListener:192 -- avg. score of the worst plan of each agent: 64.91592263882357
2019-09-18 11:39:28,415  INFO ScoreStatsControlerListener:193 -- avg. of the avg. plan score per agent: 65.01554492675089
2019-09-18 11:39:28,416  INFO ScoreStatsControlerListener:194 -- avg. score of the best plan of each agent: 65.09045249606102
2019-09-18 11:39:28,478  INFO ControlerListenerManagerImpl:167 calling notifyIterationEnds on org.matsim.analysis.TravelDistanceStatsControlerListener
2019-09-18 11:39:28,478  INFO TravelDistanceStats:128 [TravelDistanceStats] using 2 thread(s).
2019-09-18 11:39:28,481  INFO TravelDistanceStats:141 [TravelDistanceStats] all threads finished.
2019-09-18 11:39:28,481  INFO TravelDistanceStats:161 -- average of the average leg distance per plan (executed plans only): 44850.0
2019-09-18 11:39:28,481  INFO TravelDistanceStats:162 (TravelDistanceStats takes an average over all legs where the simulation reports travelled distances. These are car legs, pt legs,
2019-09-18 11:39:28,482  INFO TravelDistanceStats:163 (and teleported legs whose route contains a distance.)
2019-09-18 11:39:28,547  INFO ControlerListenerManagerImpl:167 calling notifyIterationEnds on org.matsim.analysis.LegHistogramListener
2019-09-18 11:39:28,549  INFO LegHistogramListener:72 number of legs:	201	100%
2019-09-18 11:39:28,550  INFO LegHistogramListener:79 number of car legs:	201	100.0%
2019-09-18 11:39:28,709  INFO ControlerListenerManagerImpl:167 calling notifyIterationEnds on org.matsim.analysis.LinkStatsControlerListener
2019-09-18 11:39:28,715  INFO ControlerListenerManagerImpl:171 [it.10] all ControlerIterationEndsListeners called.
2019-09-18 11:39:28,827  INFO AbstractController:167 ### ITERATION 10 ENDS
2019-09-18 11:39:28,828  INFO AbstractController:168 ###################################################
2019-09-18 11:39:28,828  INFO MatsimRuntimeModifications:58 S H U T D O W N   ---   start shutdown.
2019-09-18 11:39:28,828  INFO ControlerListenerManagerImpl:121 calling notifyShutdown on org.matsim.core.controler.corelisteners.EventsHandlingImpl
2019-09-18 11:39:28,828  INFO ControlerListenerManagerImpl:121 calling notifyShutdown on org.matsim.core.controler.corelisteners.DumpDataAtEndImpl
2019-09-18 11:39:28,830  INFO Counter:70 [PopulationWriter] dumped person # 1
2019-09-18 11:39:28,830  INFO Counter:70 [PopulationWriter] dumped person # 2
2019-09-18 11:39:28,831  INFO Counter:70 [PopulationWriter] dumped person # 4
2019-09-18 11:39:28,831  INFO Counter:70 [PopulationWriter] dumped person # 8
2019-09-18 11:39:28,832  INFO Counter:70 [PopulationWriter] dumped person # 16
2019-09-18 11:39:28,834  INFO Counter:70 [PopulationWriter] dumped person # 32
2019-09-18 11:39:28,836  INFO Counter:70 [PopulationWriter] dumped person # 64
2019-09-18 11:39:28,838  INFO PopulationWriter:139 Population written to: ./output/output_plans.xml.gz
2019-09-18 11:39:28,839  INFO Counter:76 [PopulationWriter] dumped person # 100
2019-09-18 11:39:28,844  INFO NetworkWriter:69 Writing network to file: ./output/output_network.xml.gz...
2019-09-18 11:39:28,850  INFO NetworkWriter:72 done.
2019-09-18 11:39:28,863  INFO Config:572 setting context to [file:/C:/Users/adeni/Documents/GitHub/matsim-example-project/scenarios/equil/]
2019-09-18 11:39:28,873  INFO Config:572 setting context to [file:/C:/Users/adeni/Documents/GitHub/matsim-example-project/scenarios/equil/]
2019-09-18 11:39:28,881  INFO Config:572 setting context to [file:/C:/Users/adeni/Documents/GitHub/matsim-example-project/scenarios/equil/]
2019-09-18 11:39:28,888  INFO Config:572 setting context to [file:/C:/Users/adeni/Documents/GitHub/matsim-example-project/scenarios/equil/]
2019-09-18 11:39:28,908  INFO Config:572 setting context to [file:/C:/Users/adeni/Documents/GitHub/matsim-example-project/scenarios/equil/]
2019-09-18 11:39:28,919  INFO Config:572 setting context to [file:/C:/Users/adeni/Documents/GitHub/matsim-example-project/scenarios/equil/]
2019-09-18 11:39:28,927  INFO Config:572 setting context to [file:/C:/Users/adeni/Documents/GitHub/matsim-example-project/scenarios/equil/]
2019-09-18 11:39:28,934  INFO Config:572 setting context to [file:/C:/Users/adeni/Documents/GitHub/matsim-example-project/scenarios/equil/]
2019-09-18 11:39:28,940  INFO Config:572 setting context to [file:/C:/Users/adeni/Documents/GitHub/matsim-example-project/scenarios/equil/]
2019-09-18 11:39:28,947  INFO Config:572 setting context to [file:/C:/Users/adeni/Documents/GitHub/matsim-example-project/scenarios/equil/]
2019-09-18 11:39:28,955  INFO Config:572 setting context to [file:/C:/Users/adeni/Documents/GitHub/matsim-example-project/scenarios/equil/]
2019-09-18 11:39:28,960  INFO Config:572 setting context to [file:/C:/Users/adeni/Documents/GitHub/matsim-example-project/scenarios/equil/]
2019-09-18 11:39:28,977  INFO Config:572 setting context to [file:/C:/Users/adeni/Documents/GitHub/matsim-example-project/scenarios/equil/]
2019-09-18 11:39:28,985  INFO Config:572 setting context to [file:/C:/Users/adeni/Documents/GitHub/matsim-example-project/scenarios/equil/]
2019-09-18 11:39:28,994  INFO Config:572 setting context to [file:/C:/Users/adeni/Documents/GitHub/matsim-example-project/scenarios/equil/]
2019-09-18 11:39:29,000  INFO Config:572 setting context to [file:/C:/Users/adeni/Documents/GitHub/matsim-example-project/scenarios/equil/]
2019-09-18 11:39:29,020  INFO Config:572 setting context to [file:/C:/Users/adeni/Documents/GitHub/matsim-example-project/scenarios/equil/]
2019-09-18 11:39:29,027  INFO Config:572 setting context to [file:/C:/Users/adeni/Documents/GitHub/matsim-example-project/scenarios/equil/]
2019-09-18 11:39:29,037  INFO Config:572 setting context to [file:/C:/Users/adeni/Documents/GitHub/matsim-example-project/scenarios/equil/]
2019-09-18 11:39:29,043  INFO Config:572 setting context to [file:/C:/Users/adeni/Documents/GitHub/matsim-example-project/scenarios/equil/]
2019-09-18 11:39:29,055  INFO Config:572 setting context to [file:/C:/Users/adeni/Documents/GitHub/matsim-example-project/scenarios/equil/]
2019-09-18 11:39:29,060  INFO Config:572 setting context to [file:/C:/Users/adeni/Documents/GitHub/matsim-example-project/scenarios/equil/]
2019-09-18 11:39:29,067  INFO Config:572 setting context to [file:/C:/Users/adeni/Documents/GitHub/matsim-example-project/scenarios/equil/]
2019-09-18 11:39:29,082  INFO Config:572 setting context to [file:/C:/Users/adeni/Documents/GitHub/matsim-example-project/scenarios/equil/]
2019-09-18 11:39:29,095  INFO VehicleWriterV1:52 about to write vehicles to: ./output/output_vehicles.xml.gz
2019-09-18 11:39:29,109  INFO HouseholdsWriterV10:66 about to write  households to: ./output/output_households.xml.gz
2019-09-18 11:39:29,110  INFO Counter:76 [HouseholdsWriter] wrote household # 0
2019-09-18 11:39:29,114 ERROR MatsimRuntimeModifications$1:41 Getting uncaught Exception in Thread main
java.lang.NoClassDefFoundError: javax/xml/bind/JAXBException
	at org.matsim.core.controler.corelisteners.DumpDataAtEndImpl.dumpLanes(DumpDataAtEndImpl.java:200)
	at org.matsim.core.controler.corelisteners.DumpDataAtEndImpl.notifyShutdown(DumpDataAtEndImpl.java:131)
	at org.matsim.core.controler.ControlerListenerManagerImpl.fireControlerShutdownEvent(ControlerListenerManagerImpl.java:122)
	at org.matsim.core.controler.AbstractController$1.shutdown(AbstractController.java:85)
	at org.matsim.core.controler.MatsimRuntimeModifications.run(MatsimRuntimeModifications.java:66)
	at org.matsim.core.controler.MatsimRuntimeModifications.run(MatsimRuntimeModifications.java:31)
	at org.matsim.core.controler.AbstractController.run(AbstractController.java:88)
	at org.matsim.core.controler.NewControler.run(NewControler.java:84)
	at org.matsim.core.controler.Controler.run(Controler.java:240)
	at org.matsim.project.RunMatsim.main(RunMatsim.java:61)
Caused by: java.lang.ClassNotFoundException: javax.xml.bind.JAXBException
	at java.base/jdk.internal.loader.BuiltinClassLoader.loadClass(BuiltinClassLoader.java:582)
	at java.base/jdk.internal.loader.ClassLoaders$AppClassLoader.loadClass(ClassLoaders.java:178)
	at java.base/java.lang.ClassLoader.loadClass(ClassLoader.java:521)
	... 10 more
